<?xml version="1.0" encoding="UTF-8"?>

<!-- generated on 2024-01-10 11:56:05.613122 by randomTrips.py v1_18_0+0000-03ecfdea036
<configuration>
    <net-file value="4x4.net.xml"/>
    <route-file value="map300.rou.xml"/>
    <length value="True"/>
    <validate value="True"/>
    <end value="300.0"/>
</configuration>
-->

<!-- generated on 2024-01-10 11:56:05 by Eclipse SUMO duarouter Version 1.18.0
<configuration xmlns:xsi="http://www.w3.org/2001/XMLSchema-instance" xsi:noNamespaceSchemaLocation="http://sumo.dlr.de/xsd/duarouterConfiguration.xsd">

    <input>
        <net-file value="4x4.net.xml"/>
        <route-files value="trips.trips.xml"/>
    </input>

    <output>
        <output-file value="map300.rou.xml"/>
        <alternatives-output value="NUL"/>
    </output>

    <time>
        <begin value="0"/>
        <end value="300.0"/>
    </time>

    <report>
        <no-warnings value="true"/>
        <ignore-errors value="true"/>
        <no-step-log value="true"/>
    </report>

</configuration>
-->

<routes xmlns:xsi="http://www.w3.org/2001/XMLSchema-instance" xsi:noNamespaceSchemaLocation="http://sumo.dlr.de/xsd/routes_file.xsd">
    <vehicle id="1" depart="1.00">
        <route edges="16to0 0to4 4to8 8to12 12to24"/>
    </vehicle>
    <vehicle id="11" depart="11.00">
        <route edges="18to2 2to3 3to7 7to11 11to30"/>
    </vehicle>
    <vehicle id="12" depart="12.00">
        <route edges="9to10 10to14 14to15"/>
    </vehicle>
    <vehicle id="26" depart="26.00">
        <route edges="16to0 0to4 4to8 8to9"/>
    </vehicle>
    <vehicle id="27" depart="27.00">
        <route edges="3to7"/>
    </vehicle>
    <vehicle id="29" depart="29.00">
        <route edges="12to13 13to14 14to15 15to27"/>
    </vehicle>
    <vehicle id="36" depart="36.00">
        <route edges="8to12 12to13 13to14 14to15"/>
    </vehicle>
    <vehicle id="37" depart="37.00">
        <route edges="3to7 7to11 11to15 15to27"/>
    </vehicle>
    <vehicle id="39" depart="39.00">
        <route edges="16to0 0to4 4to8 8to12 12to24"/>
    </vehicle>
    <vehicle id="40" depart="40.00">
        <route edges="23to12 12to13 13to14"/>
    </vehicle>
    <vehicle id="46" depart="46.00">
        <route edges="6to10 10to11 11to15 15to31"/>
    </vehicle>
    <vehicle id="47" depart="47.00">
        <route edges="10to11 11to15 15to27"/>
    </vehicle>
    <vehicle id="50" depart="50.00">
        <route edges="0to1 1to5 5to9"/>
    </vehicle>
    <vehicle id="52" depart="52.00">
        <route edges="16to0 0to4 4to5"/>
    </vehicle>
    <vehicle id="53" depart="53.00">
        <route edges="10to14 14to15 15to31"/>
    </vehicle>
    <vehicle id="54" depart="54.00">
        <route edges="20to0 0to4 4to5 5to9 9to10"/>
    </vehicle>
    <vehicle id="56" depart="56.00">
        <route edges="21to4 4to8 8to9 9to10 10to11 11to30"/>
    </vehicle>
    <vehicle id="59" depart="59.00">
        <route edges="2to6 6to7 7to11 11to15"/>
    </vehicle>
    <vehicle id="62" depart="62.00">
        <route edges="0to1 1to5 5to6 6to10 10to14 14to15"/>
    </vehicle>
    <vehicle id="69" depart="69.00">
        <route edges="5to9 9to10 10to11 11to15"/>
    </vehicle>
    <vehicle id="71" depart="71.00">
        <route edges="16to0 0to1 1to5 5to6 6to7 7to29"/>
    </vehicle>
    <vehicle id="78" depart="78.00">
        <route edges="18to2 2to3 3to28"/>
    </vehicle>
    <vehicle id="86" depart="86.00">
        <route edges="21to4 4to5 5to6 6to7"/>
    </vehicle>
    <vehicle id="88" depart="88.00">
        <route edges="10to14 14to15 15to31"/>
    </vehicle>
    <vehicle id="92" depart="92.00">
        <route edges="1to2 2to6 6to10 10to14 14to15"/>
    </vehicle>
    <vehicle id="95" depart="95.00">
        <route edges="1to5 5to9 9to13 13to14"/>
    </vehicle>
    <vehicle id="96" depart="96.00">
        <route edges="16to0 0to4 4to8 8to9"/>
    </vehicle>
    <vehicle id="97" depart="97.00">
        <route edges="20to0 0to4 4to5 5to6 6to7 7to29"/>
    </vehicle>
    <vehicle id="101" depart="101.00">
        <route edges="7to11 11to30"/>
    </vehicle>
    <vehicle id="102" depart="102.00">
        <route edges="21to4 4to8 8to12 12to13"/>
    </vehicle>
    <vehicle id="105" depart="105.00">
        <route edges="16to0 0to1 1to5 5to6 6to7"/>
    </vehicle>
    <vehicle id="106" depart="106.00">
        <route edges="20to0 0to4 4to5 5to9 9to10 10to14 14to15 15to31"/>
    </vehicle>
    <vehicle id="113" depart="113.00">
        <route edges="21to4 4to5 5to6 6to7 7to29"/>
    </vehicle>
    <vehicle id="115" depart="115.00">
        <route edges="10to11 11to30"/>
    </vehicle>
    <vehicle id="118" depart="118.00">
        <route edges="8to12 12to24"/>
    </vehicle>
    <vehicle id="119" depart="119.00">
        <route edges="2to3 3to7"/>
    </vehicle>
    <vehicle id="121" depart="121.00">
        <route edges="22to8 8to9"/>
    </vehicle>
    <vehicle id="123" depart="123.00">
        <route edges="14to15 15to27"/>
    </vehicle>
    <vehicle id="124" depart="124.00">
        <route edges="4to5 5to9 9to13 13to25"/>
    </vehicle>
    <vehicle id="125" depart="125.00">
        <route edges="18to2 2to6 6to10"/>
    </vehicle>
    <vehicle id="127" depart="127.00">
        <route edges="9to13"/>
    </vehicle>
    <vehicle id="129" depart="129.00">
        <route edges="16to0 0to4 4to8 8to9"/>
    </vehicle>
    <vehicle id="130" depart="130.00">
        <route edges="8to12"/>
    </vehicle>
    <vehicle id="131" depart="131.00">
        <route edges="19to3 3to7 7to11 11to30"/>
    </vehicle>
    <vehicle id="136" depart="136.00">
        <route edges="4to5 5to9 9to10"/>
    </vehicle>
    <vehicle id="139" depart="139.00">
        <route edges="16to0 0to1 1to2 2to3 3to7"/>
    </vehicle>
    <vehicle id="140" depart="140.00">
        <route edges="4to8 8to12 12to13"/>
    </vehicle>
    <vehicle id="142" depart="142.00">
        <route edges="21to4 4to8 8to12"/>
    </vehicle>
    <vehicle id="144" depart="144.00">
        <route edges="1to5 5to9 9to13 13to14"/>
    </vehicle>
    <vehicle id="145" depart="145.00">
        <route edges="0to1 1to5 5to6 6to10"/>
    </vehicle>
    <vehicle id="152" depart="152.00">
        <route edges="11to15"/>
    </vehicle>
    <vehicle id="155" depart="155.00">
        <route edges="8to12 12to13"/>
    </vehicle>
    <vehicle id="156" depart="156.00">
        <route edges="16to0 0to1 1to5 5to6 6to10 10to14"/>
    </vehicle>
    <vehicle id="158" depart="158.00">
        <route edges="1to2 2to3 3to7"/>
    </vehicle>
    <vehicle id="162" depart="162.00">
        <route edges="0to1 1to5 5to9"/>
    </vehicle>
    <vehicle id="166" depart="166.00">
        <route edges="6to10 10to14"/>
    </vehicle>
    <vehicle id="169" depart="169.00">
        <route edges="20to0 0to4 4to5 5to9 9to13 13to25"/>
    </vehicle>
    <vehicle id="172" depart="172.00">
        <route edges="18to2 2to3 3to7 7to29"/>
    </vehicle>
    <vehicle id="174" depart="174.00">
        <route edges="3to7 7to11 11to15 15to27"/>
    </vehicle>
    <vehicle id="176" depart="176.00">
        <route edges="9to10 10to14"/>
    </vehicle>
    <vehicle id="179" depart="179.00">
        <route edges="10to14 14to15 15to31"/>
    </vehicle>
    <vehicle id="180" depart="180.00">
        <route edges="5to6 6to10 10to14 14to15"/>
    </vehicle>
    <vehicle id="182" depart="182.00">
        <route edges="1to2 2to3 3to28"/>
    </vehicle>
    <vehicle id="183" depart="183.00">
        <route edges="16to0 0to1 1to5 5to6"/>
    </vehicle>
    <vehicle id="188" depart="188.00">
        <route edges="4to5 5to9 9to10 10to14 14to15"/>
    </vehicle>
    <vehicle id="189" depart="189.00">
        <route edges="18to2 2to3 3to7 7to29"/>
    </vehicle>
    <vehicle id="190" depart="190.00">
        <route edges="4to8 8to9 9to13 13to25"/>
    </vehicle>
    <vehicle id="191" depart="191.00">
        <route edges="17to1 1to2 2to6 6to7 7to11 11to15 15to31"/>
    </vehicle>
    <vehicle id="193" depart="193.00">
        <route edges="11to15 15to31"/>
    </vehicle>
    <vehicle id="196" depart="196.00">
        <route edges="17to1 1to2 2to6"/>
    </vehicle>
    <vehicle id="197" depart="197.00">
        <route edges="0to1 1to5 5to9 9to13 13to25"/>
    </vehicle>
    <vehicle id="200" depart="200.00">
        <route edges="20to0 0to4 4to8 8to12 12to13"/>
    </vehicle>
    <vehicle id="201" depart="201.00">
        <route edges="21to4 4to8 8to12"/>
    </vehicle>
    <vehicle id="202" depart="202.00">
        <route edges="6to10 10to11 11to30"/>
    </vehicle>
    <vehicle id="212" depart="212.00">
        <route edges="21to4 4to8 8to12 12to24"/>
    </vehicle>
    <vehicle id="214" depart="214.00">
        <route edges="5to6 6to10"/>
    </vehicle>
    <vehicle id="215" depart="215.00">
        <route edges="10to14 14to15 15to31"/>
    </vehicle>
    <vehicle id="218" depart="218.00">
        <route edges="16to0 0to1 1to5 5to6 6to7 7to29"/>
    </vehicle>
    <vehicle id="219" depart="219.00">
        <route edges="20to0 0to4 4to5 5to6 6to7"/>
    </vehicle>
    <vehicle id="220" depart="220.00">
        <route edges="4to5 5to9 9to13"/>
    </vehicle>
    <vehicle id="226" depart="226.00">
        <route edges="21to4 4to8 8to9 9to13 13to14"/>
    </vehicle>
    <vehicle id="231" depart="231.00">
        <route edges="16to0 0to1 1to5 5to6 6to10 10to14 14to15"/>
    </vehicle>
    <vehicle id="234" depart="234.00">
        <route edges="4to8 8to9 9to10 10to11"/>
    </vehicle>
    <vehicle id="235" depart="235.00">
        <route edges="1to2 2to6"/>
    </vehicle>
    <vehicle id="243" depart="243.00">
        <route edges="1to5 5to9"/>
    </vehicle>
    <vehicle id="248" depart="248.00">
        <route edges="1to2 2to6 6to7 7to11 11to30"/>
    </vehicle>
    <vehicle id="249" depart="249.00">
        <route edges="20to0 0to4 4to5 5to9 9to10 10to11 11to15"/>
    </vehicle>
    <vehicle id="251" depart="251.00">
        <route edges="1to2 2to3 3to28"/>
    </vehicle>
    <vehicle id="254" depart="254.00">
        <route edges="0to4 4to5 5to9 9to10 10to14 14to15 15to27"/>
    </vehicle>
    <vehicle id="255" depart="255.00">
        <route edges="13to14 14to15"/>
    </vehicle>
    <vehicle id="256" depart="256.00">
        <route edges="5to9 9to10 10to14 14to15 15to27"/>
    </vehicle>
    <vehicle id="257" depart="257.00">
        <route edges="5to6 6to7 7to11"/>
    </vehicle>
    <vehicle id="258" depart="258.00">
        <route edges="16to0 0to1 1to5 5to6 6to10 10to11"/>
    </vehicle>
    <vehicle id="259" depart="259.00">
        <route edges="0to1 1to2 2to6"/>
    </vehicle>
    <vehicle id="260" depart="260.00">
        <route edges="9to13 13to14 14to26"/>
    </vehicle>
    <vehicle id="264" depart="264.00">
        <route edges="0to1 1to5 5to6 6to10 10to11 11to15"/>
    </vehicle>
    <vehicle id="266" depart="266.00">
        <route edges="23to12 12to13"/>
    </vehicle>
    <vehicle id="269" depart="269.00">
        <route edges="5to6 6to10 10to14"/>
    </vehicle>
    <vehicle id="273" depart="273.00">
        <route edges="9to10 10to14 14to15 15to27"/>
    </vehicle>
    <vehicle id="274" depart="274.00">
        <route edges="4to8 8to9 9to10 10to11"/>
    </vehicle>
    <vehicle id="279" depart="279.00">
        <route edges="5to9 9to10 10to14 14to26"/>
    </vehicle>
    <vehicle id="280" depart="280.00">
        <route edges="1to5 5to6 6to10 10to14 14to26"/>
    </vehicle>
    <vehicle id="281" depart="281.00">
        <route edges="22to8 8to12 12to13 13to14 14to15"/>
    </vehicle>
    <vehicle id="282" depart="282.00">
        <route edges="7to11"/>
    </vehicle>
    <vehicle id="284" depart="284.00">
        <route edges="3to7 7to11"/>
    </vehicle>
    <vehicle id="285" depart="285.00">
        <route edges="4to8 8to9 9to13 13to14 14to15 15to31"/>
    </vehicle>
    <vehicle id="287" depart="287.00">
        <route edges="16to0 0to1 1to5 5to6 6to7"/>
    </vehicle>
    <vehicle id="289" depart="289.00">
        <route edges="1to5 5to9"/>
    </vehicle>
    <vehicle id="290" depart="290.00">
        <route edges="16to0 0to1 1to5 5to6 6to7 7to29"/>
    </vehicle>
    <vehicle id="292" depart="292.00">
        <route edges="8to12 12to24"/>
    </vehicle>
    <vehicle id="293" depart="293.00">
        <route edges="20to0 0to1 1to2 2to3 3to7"/>
    </vehicle>
    <vehicle id="295" depart="295.00">
        <route edges="7to11 11to30"/>
    </vehicle>
    <vehicle id="298" depart="298.00">
        <route edges="4to8 8to9 9to13 13to14"/>
    </vehicle>
    <vehicle id="299" depart="299.00">
        <route edges="0to1 1to5 5to9 9to10"/>
    </vehicle>
</routes>
