<?xml version="1.0" encoding="UTF-8"?>

<!-- generated on 2024-01-10 11:55:30.495434 by randomTrips.py v1_18_0+0000-03ecfdea036
<configuration>
    <net-file value="4x4.net.xml"/>
    <route-file value="map700.rou.xml"/>
    <length value="True"/>
    <validate value="True"/>
    <end value="700.0"/>
</configuration>
-->

<!-- generated on 2024-01-10 11:55:30 by Eclipse SUMO duarouter Version 1.18.0
<configuration xmlns:xsi="http://www.w3.org/2001/XMLSchema-instance" xsi:noNamespaceSchemaLocation="http://sumo.dlr.de/xsd/duarouterConfiguration.xsd">

    <input>
        <net-file value="4x4.net.xml"/>
        <route-files value="trips.trips.xml"/>
    </input>

    <output>
        <output-file value="map700.rou.xml"/>
        <alternatives-output value="NUL"/>
    </output>

    <time>
        <begin value="0"/>
        <end value="700.0"/>
    </time>

    <report>
        <no-warnings value="true"/>
        <ignore-errors value="true"/>
        <no-step-log value="true"/>
    </report>

</configuration>
-->

<routes xmlns:xsi="http://www.w3.org/2001/XMLSchema-instance" xsi:noNamespaceSchemaLocation="http://sumo.dlr.de/xsd/routes_file.xsd">
    <vehicle id="1" depart="1.00">
        <route edges="16to0 0to4 4to8 8to12 12to24"/>
    </vehicle>
    <vehicle id="11" depart="11.00">
        <route edges="18to2 2to3 3to7 7to11 11to30"/>
    </vehicle>
    <vehicle id="12" depart="12.00">
        <route edges="9to10 10to14 14to15"/>
    </vehicle>
    <vehicle id="26" depart="26.00">
        <route edges="16to0 0to4 4to8 8to9"/>
    </vehicle>
    <vehicle id="27" depart="27.00">
        <route edges="3to7"/>
    </vehicle>
    <vehicle id="29" depart="29.00">
        <route edges="12to13 13to14 14to15 15to27"/>
    </vehicle>
    <vehicle id="36" depart="36.00">
        <route edges="8to12 12to13 13to14 14to15"/>
    </vehicle>
    <vehicle id="37" depart="37.00">
        <route edges="3to7 7to11 11to15 15to27"/>
    </vehicle>
    <vehicle id="39" depart="39.00">
        <route edges="16to0 0to4 4to8 8to12 12to24"/>
    </vehicle>
    <vehicle id="40" depart="40.00">
        <route edges="23to12 12to13 13to14"/>
    </vehicle>
    <vehicle id="46" depart="46.00">
        <route edges="6to10 10to11 11to15 15to31"/>
    </vehicle>
    <vehicle id="47" depart="47.00">
        <route edges="10to11 11to15 15to27"/>
    </vehicle>
    <vehicle id="50" depart="50.00">
        <route edges="0to1 1to5 5to9"/>
    </vehicle>
    <vehicle id="52" depart="52.00">
        <route edges="16to0 0to4 4to5"/>
    </vehicle>
    <vehicle id="53" depart="53.00">
        <route edges="10to14 14to15 15to31"/>
    </vehicle>
    <vehicle id="54" depart="54.00">
        <route edges="20to0 0to4 4to5 5to9 9to10"/>
    </vehicle>
    <vehicle id="56" depart="56.00">
        <route edges="21to4 4to8 8to9 9to10 10to11 11to30"/>
    </vehicle>
    <vehicle id="59" depart="59.00">
        <route edges="2to6 6to7 7to11 11to15"/>
    </vehicle>
    <vehicle id="62" depart="62.00">
        <route edges="0to1 1to5 5to6 6to10 10to14 14to15"/>
    </vehicle>
    <vehicle id="69" depart="69.00">
        <route edges="5to9 9to10 10to11 11to15"/>
    </vehicle>
    <vehicle id="71" depart="71.00">
        <route edges="16to0 0to1 1to5 5to6 6to7 7to29"/>
    </vehicle>
    <vehicle id="78" depart="78.00">
        <route edges="18to2 2to3 3to28"/>
    </vehicle>
    <vehicle id="86" depart="86.00">
        <route edges="21to4 4to5 5to6 6to7"/>
    </vehicle>
    <vehicle id="88" depart="88.00">
        <route edges="10to14 14to15 15to31"/>
    </vehicle>
    <vehicle id="92" depart="92.00">
        <route edges="1to2 2to6 6to10 10to14 14to15"/>
    </vehicle>
    <vehicle id="95" depart="95.00">
        <route edges="1to5 5to9 9to13 13to14"/>
    </vehicle>
    <vehicle id="96" depart="96.00">
        <route edges="16to0 0to4 4to8 8to9"/>
    </vehicle>
    <vehicle id="97" depart="97.00">
        <route edges="20to0 0to4 4to5 5to6 6to7 7to29"/>
    </vehicle>
    <vehicle id="101" depart="101.00">
        <route edges="7to11 11to30"/>
    </vehicle>
    <vehicle id="102" depart="102.00">
        <route edges="21to4 4to8 8to12 12to13"/>
    </vehicle>
    <vehicle id="105" depart="105.00">
        <route edges="16to0 0to1 1to5 5to6 6to7"/>
    </vehicle>
    <vehicle id="106" depart="106.00">
        <route edges="20to0 0to4 4to5 5to9 9to10 10to14 14to15 15to31"/>
    </vehicle>
    <vehicle id="113" depart="113.00">
        <route edges="21to4 4to5 5to6 6to7 7to29"/>
    </vehicle>
    <vehicle id="115" depart="115.00">
        <route edges="10to11 11to30"/>
    </vehicle>
    <vehicle id="118" depart="118.00">
        <route edges="8to12 12to24"/>
    </vehicle>
    <vehicle id="119" depart="119.00">
        <route edges="2to3 3to7"/>
    </vehicle>
    <vehicle id="121" depart="121.00">
        <route edges="22to8 8to9"/>
    </vehicle>
    <vehicle id="123" depart="123.00">
        <route edges="14to15 15to27"/>
    </vehicle>
    <vehicle id="124" depart="124.00">
        <route edges="4to5 5to9 9to13 13to25"/>
    </vehicle>
    <vehicle id="125" depart="125.00">
        <route edges="18to2 2to6 6to10"/>
    </vehicle>
    <vehicle id="127" depart="127.00">
        <route edges="9to13"/>
    </vehicle>
    <vehicle id="129" depart="129.00">
        <route edges="16to0 0to4 4to8 8to9"/>
    </vehicle>
    <vehicle id="130" depart="130.00">
        <route edges="8to12"/>
    </vehicle>
    <vehicle id="131" depart="131.00">
        <route edges="19to3 3to7 7to11 11to30"/>
    </vehicle>
    <vehicle id="136" depart="136.00">
        <route edges="4to5 5to9 9to10"/>
    </vehicle>
    <vehicle id="139" depart="139.00">
        <route edges="16to0 0to1 1to2 2to3 3to7"/>
    </vehicle>
    <vehicle id="140" depart="140.00">
        <route edges="4to8 8to12 12to13"/>
    </vehicle>
    <vehicle id="142" depart="142.00">
        <route edges="21to4 4to8 8to12"/>
    </vehicle>
    <vehicle id="144" depart="144.00">
        <route edges="1to5 5to9 9to13 13to14"/>
    </vehicle>
    <vehicle id="145" depart="145.00">
        <route edges="0to1 1to5 5to6 6to10"/>
    </vehicle>
    <vehicle id="152" depart="152.00">
        <route edges="11to15"/>
    </vehicle>
    <vehicle id="155" depart="155.00">
        <route edges="8to12 12to13"/>
    </vehicle>
    <vehicle id="156" depart="156.00">
        <route edges="16to0 0to1 1to5 5to6 6to10 10to14"/>
    </vehicle>
    <vehicle id="158" depart="158.00">
        <route edges="1to2 2to3 3to7"/>
    </vehicle>
    <vehicle id="162" depart="162.00">
        <route edges="0to1 1to5 5to9"/>
    </vehicle>
    <vehicle id="166" depart="166.00">
        <route edges="6to10 10to14"/>
    </vehicle>
    <vehicle id="169" depart="169.00">
        <route edges="20to0 0to4 4to5 5to9 9to13 13to25"/>
    </vehicle>
    <vehicle id="172" depart="172.00">
        <route edges="18to2 2to3 3to7 7to29"/>
    </vehicle>
    <vehicle id="174" depart="174.00">
        <route edges="3to7 7to11 11to15 15to27"/>
    </vehicle>
    <vehicle id="176" depart="176.00">
        <route edges="9to10 10to14"/>
    </vehicle>
    <vehicle id="179" depart="179.00">
        <route edges="10to14 14to15 15to31"/>
    </vehicle>
    <vehicle id="180" depart="180.00">
        <route edges="5to6 6to10 10to14 14to15"/>
    </vehicle>
    <vehicle id="182" depart="182.00">
        <route edges="1to2 2to3 3to28"/>
    </vehicle>
    <vehicle id="183" depart="183.00">
        <route edges="16to0 0to1 1to5 5to6"/>
    </vehicle>
    <vehicle id="188" depart="188.00">
        <route edges="4to5 5to9 9to10 10to14 14to15"/>
    </vehicle>
    <vehicle id="189" depart="189.00">
        <route edges="18to2 2to3 3to7 7to29"/>
    </vehicle>
    <vehicle id="190" depart="190.00">
        <route edges="4to8 8to9 9to13 13to25"/>
    </vehicle>
    <vehicle id="191" depart="191.00">
        <route edges="17to1 1to2 2to6 6to7 7to11 11to15 15to31"/>
    </vehicle>
    <vehicle id="193" depart="193.00">
        <route edges="11to15 15to31"/>
    </vehicle>
    <vehicle id="196" depart="196.00">
        <route edges="17to1 1to2 2to6"/>
    </vehicle>
    <vehicle id="197" depart="197.00">
        <route edges="0to1 1to5 5to9 9to13 13to25"/>
    </vehicle>
    <vehicle id="200" depart="200.00">
        <route edges="20to0 0to4 4to8 8to12 12to13"/>
    </vehicle>
    <vehicle id="201" depart="201.00">
        <route edges="21to4 4to8 8to12"/>
    </vehicle>
    <vehicle id="202" depart="202.00">
        <route edges="6to10 10to11 11to30"/>
    </vehicle>
    <vehicle id="212" depart="212.00">
        <route edges="21to4 4to8 8to12 12to24"/>
    </vehicle>
    <vehicle id="214" depart="214.00">
        <route edges="5to6 6to10"/>
    </vehicle>
    <vehicle id="215" depart="215.00">
        <route edges="10to14 14to15 15to31"/>
    </vehicle>
    <vehicle id="218" depart="218.00">
        <route edges="16to0 0to1 1to5 5to6 6to7 7to29"/>
    </vehicle>
    <vehicle id="219" depart="219.00">
        <route edges="20to0 0to4 4to5 5to6 6to7"/>
    </vehicle>
    <vehicle id="220" depart="220.00">
        <route edges="4to5 5to9 9to13"/>
    </vehicle>
    <vehicle id="226" depart="226.00">
        <route edges="21to4 4to8 8to9 9to13 13to14"/>
    </vehicle>
    <vehicle id="231" depart="231.00">
        <route edges="16to0 0to1 1to5 5to6 6to10 10to14 14to15"/>
    </vehicle>
    <vehicle id="234" depart="234.00">
        <route edges="4to8 8to9 9to10 10to11"/>
    </vehicle>
    <vehicle id="235" depart="235.00">
        <route edges="1to2 2to6"/>
    </vehicle>
    <vehicle id="243" depart="243.00">
        <route edges="1to5 5to9"/>
    </vehicle>
    <vehicle id="248" depart="248.00">
        <route edges="1to2 2to6 6to7 7to11 11to30"/>
    </vehicle>
    <vehicle id="249" depart="249.00">
        <route edges="20to0 0to4 4to5 5to9 9to10 10to11 11to15"/>
    </vehicle>
    <vehicle id="251" depart="251.00">
        <route edges="1to2 2to3 3to28"/>
    </vehicle>
    <vehicle id="254" depart="254.00">
        <route edges="0to4 4to5 5to9 9to10 10to14 14to15 15to27"/>
    </vehicle>
    <vehicle id="255" depart="255.00">
        <route edges="13to14 14to15"/>
    </vehicle>
    <vehicle id="256" depart="256.00">
        <route edges="5to9 9to10 10to14 14to15 15to27"/>
    </vehicle>
    <vehicle id="257" depart="257.00">
        <route edges="5to6 6to7 7to11"/>
    </vehicle>
    <vehicle id="258" depart="258.00">
        <route edges="16to0 0to1 1to5 5to6 6to10 10to11"/>
    </vehicle>
    <vehicle id="259" depart="259.00">
        <route edges="0to1 1to2 2to6"/>
    </vehicle>
    <vehicle id="260" depart="260.00">
        <route edges="9to13 13to14 14to26"/>
    </vehicle>
    <vehicle id="264" depart="264.00">
        <route edges="0to1 1to5 5to6 6to10 10to11 11to15"/>
    </vehicle>
    <vehicle id="266" depart="266.00">
        <route edges="23to12 12to13"/>
    </vehicle>
    <vehicle id="269" depart="269.00">
        <route edges="5to6 6to10 10to14"/>
    </vehicle>
    <vehicle id="273" depart="273.00">
        <route edges="9to10 10to14 14to15 15to27"/>
    </vehicle>
    <vehicle id="274" depart="274.00">
        <route edges="4to8 8to9 9to10 10to11"/>
    </vehicle>
    <vehicle id="279" depart="279.00">
        <route edges="5to9 9to10 10to14 14to26"/>
    </vehicle>
    <vehicle id="280" depart="280.00">
        <route edges="1to5 5to6 6to10 10to14 14to26"/>
    </vehicle>
    <vehicle id="281" depart="281.00">
        <route edges="22to8 8to12 12to13 13to14 14to15"/>
    </vehicle>
    <vehicle id="282" depart="282.00">
        <route edges="7to11"/>
    </vehicle>
    <vehicle id="284" depart="284.00">
        <route edges="3to7 7to11"/>
    </vehicle>
    <vehicle id="285" depart="285.00">
        <route edges="4to8 8to9 9to13 13to14 14to15 15to31"/>
    </vehicle>
    <vehicle id="287" depart="287.00">
        <route edges="16to0 0to1 1to5 5to6 6to7"/>
    </vehicle>
    <vehicle id="289" depart="289.00">
        <route edges="1to5 5to9"/>
    </vehicle>
    <vehicle id="290" depart="290.00">
        <route edges="16to0 0to1 1to5 5to6 6to7 7to29"/>
    </vehicle>
    <vehicle id="292" depart="292.00">
        <route edges="8to12 12to24"/>
    </vehicle>
    <vehicle id="293" depart="293.00">
        <route edges="20to0 0to1 1to2 2to3 3to7"/>
    </vehicle>
    <vehicle id="295" depart="295.00">
        <route edges="7to11 11to30"/>
    </vehicle>
    <vehicle id="298" depart="298.00">
        <route edges="4to8 8to9 9to13 13to14"/>
    </vehicle>
    <vehicle id="299" depart="299.00">
        <route edges="0to1 1to5 5to9 9to10"/>
    </vehicle>
    <vehicle id="301" depart="301.00">
        <route edges="21to4 4to5 5to6 6to10"/>
    </vehicle>
    <vehicle id="303" depart="303.00">
        <route edges="21to4 4to5 5to6 6to7"/>
    </vehicle>
    <vehicle id="305" depart="305.00">
        <route edges="4to8 8to9 9to13 13to25"/>
    </vehicle>
    <vehicle id="307" depart="307.00">
        <route edges="22to8 8to12 12to13 13to14 14to15 15to31"/>
    </vehicle>
    <vehicle id="308" depart="308.00">
        <route edges="5to6 6to10 10to14 14to15"/>
    </vehicle>
    <vehicle id="309" depart="309.00">
        <route edges="4to8 8to9 9to13 13to14"/>
    </vehicle>
    <vehicle id="310" depart="310.00">
        <route edges="16to0 0to1 1to5 5to6 6to10 10to14"/>
    </vehicle>
    <vehicle id="313" depart="313.00">
        <route edges="12to13"/>
    </vehicle>
    <vehicle id="314" depart="314.00">
        <route edges="21to4 4to5 5to9"/>
    </vehicle>
    <vehicle id="316" depart="316.00">
        <route edges="17to1 1to2 2to6 6to10 10to14"/>
    </vehicle>
    <vehicle id="319" depart="319.00">
        <route edges="22to8 8to12 12to13 13to14"/>
    </vehicle>
    <vehicle id="321" depart="321.00">
        <route edges="4to8 8to9 9to10 10to11 11to15"/>
    </vehicle>
    <vehicle id="324" depart="324.00">
        <route edges="20to0 0to1 1to2"/>
    </vehicle>
    <vehicle id="327" depart="327.00">
        <route edges="6to7 7to11 11to15 15to27"/>
    </vehicle>
    <vehicle id="329" depart="329.00">
        <route edges="0to4 4to5 5to9 9to10 10to11 11to15"/>
    </vehicle>
    <vehicle id="330" depart="330.00">
        <route edges="23to12 12to13 13to25"/>
    </vehicle>
    <vehicle id="335" depart="335.00">
        <route edges="20to0 0to4 4to5 5to6 6to7 7to29"/>
    </vehicle>
    <vehicle id="336" depart="336.00">
        <route edges="9to13 13to25"/>
    </vehicle>
    <vehicle id="340" depart="340.00">
        <route edges="4to5 5to9 9to10 10to11 11to30"/>
    </vehicle>
    <vehicle id="342" depart="342.00">
        <route edges="0to1 1to2"/>
    </vehicle>
    <vehicle id="352" depart="352.00">
        <route edges="12to13 13to25"/>
    </vehicle>
    <vehicle id="354" depart="354.00">
        <route edges="17to1 1to2 2to6 6to7 7to11 11to15"/>
    </vehicle>
    <vehicle id="355" depart="355.00">
        <route edges="4to5 5to6"/>
    </vehicle>
    <vehicle id="357" depart="357.00">
        <route edges="21to4 4to8 8to9 9to10 10to11"/>
    </vehicle>
    <vehicle id="358" depart="358.00">
        <route edges="0to4 4to5 5to9 9to10 10to14 14to15 15to31"/>
    </vehicle>
    <vehicle id="363" depart="363.00">
        <route edges="4to5 5to9 9to13 13to14"/>
    </vehicle>
    <vehicle id="364" depart="364.00">
        <route edges="0to4 4to5 5to6 6to10"/>
    </vehicle>
    <vehicle id="365" depart="365.00">
        <route edges="20to0 0to4 4to5"/>
    </vehicle>
    <vehicle id="366" depart="366.00">
        <route edges="8to9 9to10 10to11 11to30"/>
    </vehicle>
    <vehicle id="368" depart="368.00">
        <route edges="21to4 4to8 8to9 9to10 10to11"/>
    </vehicle>
    <vehicle id="370" depart="370.00">
        <route edges="4to5 5to6 6to7 7to29"/>
    </vehicle>
    <vehicle id="372" depart="372.00">
        <route edges="17to1 1to5 5to9 9to10"/>
    </vehicle>
    <vehicle id="374" depart="374.00">
        <route edges="20to0 0to4 4to5 5to9 9to10 10to14 14to15"/>
    </vehicle>
    <vehicle id="376" depart="376.00">
        <route edges="1to2 2to3"/>
    </vehicle>
    <vehicle id="378" depart="378.00">
        <route edges="23to12 12to13 13to14 14to15 15to31"/>
    </vehicle>
    <vehicle id="379" depart="379.00">
        <route edges="13to14 14to26"/>
    </vehicle>
    <vehicle id="383" depart="383.00">
        <route edges="1to5 5to6"/>
    </vehicle>
    <vehicle id="389" depart="389.00">
        <route edges="20to0 0to4 4to5 5to9 9to10 10to14"/>
    </vehicle>
    <vehicle id="392" depart="392.00">
        <route edges="16to0 0to1 1to5 5to6 6to7 7to11"/>
    </vehicle>
    <vehicle id="394" depart="394.00">
        <route edges="23to12 12to13 13to14 14to15 15to27"/>
    </vehicle>
    <vehicle id="397" depart="397.00">
        <route edges="16to0 0to1 1to5 5to6 6to7"/>
    </vehicle>
    <vehicle id="400" depart="400.00">
        <route edges="17to1 1to5 5to9 9to13 13to25"/>
    </vehicle>
    <vehicle id="402" depart="402.00">
        <route edges="21to4 4to8 8to9 9to10 10to11 11to15"/>
    </vehicle>
    <vehicle id="403" depart="403.00">
        <route edges="23to12 12to13 13to14 14to26"/>
    </vehicle>
    <vehicle id="405" depart="405.00">
        <route edges="20to0 0to4 4to5 5to9 9to10 10to14 14to15"/>
    </vehicle>
    <vehicle id="409" depart="409.00">
        <route edges="5to6"/>
    </vehicle>
    <vehicle id="410" depart="410.00">
        <route edges="6to10 10to11 11to15 15to27"/>
    </vehicle>
    <vehicle id="411" depart="411.00">
        <route edges="4to5 5to6 6to7 7to11"/>
    </vehicle>
    <vehicle id="414" depart="414.00">
        <route edges="2to3 3to7 7to29"/>
    </vehicle>
    <vehicle id="417" depart="417.00">
        <route edges="5to6 6to10 10to11 11to15 15to31"/>
    </vehicle>
    <vehicle id="418" depart="418.00">
        <route edges="3to7 7to11 11to15"/>
    </vehicle>
    <vehicle id="419" depart="419.00">
        <route edges="20to0 0to4 4to5 5to9 9to13"/>
    </vehicle>
    <vehicle id="421" depart="421.00">
        <route edges="3to7 7to29"/>
    </vehicle>
    <vehicle id="423" depart="423.00">
        <route edges="1to2 2to6 6to10 10to14 14to15"/>
    </vehicle>
    <vehicle id="427" depart="427.00">
        <route edges="8to9 9to13"/>
    </vehicle>
    <vehicle id="428" depart="428.00">
        <route edges="5to6 6to10 10to11 11to15 15to31"/>
    </vehicle>
    <vehicle id="431" depart="431.00">
        <route edges="4to8 8to12"/>
    </vehicle>
    <vehicle id="432" depart="432.00">
        <route edges="0to4 4to5 5to6 6to7"/>
    </vehicle>
    <vehicle id="433" depart="433.00">
        <route edges="17to1 1to2 2to6 6to7 7to11 11to15 15to27"/>
    </vehicle>
    <vehicle id="440" depart="440.00">
        <route edges="16to0 0to1 1to5 5to9 9to13 13to14"/>
    </vehicle>
    <vehicle id="441" depart="441.00">
        <route edges="0to1 1to5 5to6 6to7"/>
    </vehicle>
    <vehicle id="444" depart="444.00">
        <route edges="18to2 2to3 3to28"/>
    </vehicle>
    <vehicle id="445" depart="445.00">
        <route edges="3to7 7to11 11to15 15to31"/>
    </vehicle>
    <vehicle id="446" depart="446.00">
        <route edges="16to0 0to1 1to5 5to6 6to7 7to29"/>
    </vehicle>
    <vehicle id="447" depart="447.00">
        <route edges="13to14 14to15 15to27"/>
    </vehicle>
    <vehicle id="448" depart="448.00">
        <route edges="21to4 4to8 8to12 12to24"/>
    </vehicle>
    <vehicle id="449" depart="449.00">
        <route edges="2to3 3to28"/>
    </vehicle>
    <vehicle id="450" depart="450.00">
        <route edges="9to13 13to25"/>
    </vehicle>
    <vehicle id="452" depart="452.00">
        <route edges="16to0 0to1 1to2 2to3 3to28"/>
    </vehicle>
    <vehicle id="453" depart="453.00">
        <route edges="4to5 5to9"/>
    </vehicle>
    <vehicle id="455" depart="455.00">
        <route edges="21to4 4to8 8to12"/>
    </vehicle>
    <vehicle id="456" depart="456.00">
        <route edges="17to1 1to2 2to6 6to7"/>
    </vehicle>
    <vehicle id="457" depart="457.00">
        <route edges="2to6 6to10 10to14 14to26"/>
    </vehicle>
    <vehicle id="458" depart="458.00">
        <route edges="3to7"/>
    </vehicle>
    <vehicle id="459" depart="459.00">
        <route edges="4to5 5to9"/>
    </vehicle>
    <vehicle id="460" depart="460.00">
        <route edges="4to5 5to6 6to7 7to11"/>
    </vehicle>
    <vehicle id="464" depart="464.00">
        <route edges="5to6 6to10 10to11"/>
    </vehicle>
    <vehicle id="465" depart="465.00">
        <route edges="17to1 1to5 5to9"/>
    </vehicle>
    <vehicle id="468" depart="468.00">
        <route edges="22to8 8to9"/>
    </vehicle>
    <vehicle id="472" depart="472.00">
        <route edges="18to2 2to6 6to10 10to14"/>
    </vehicle>
    <vehicle id="473" depart="473.00">
        <route edges="9to10 10to11 11to15"/>
    </vehicle>
    <vehicle id="478" depart="478.00">
        <route edges="0to1 1to2 2to6"/>
    </vehicle>
    <vehicle id="479" depart="479.00">
        <route edges="20to0 0to4 4to8"/>
    </vehicle>
    <vehicle id="487" depart="487.00">
        <route edges="17to1 1to2 2to6 6to7 7to11 11to15 15to31"/>
    </vehicle>
    <vehicle id="489" depart="489.00">
        <route edges="17to1 1to5"/>
    </vehicle>
    <vehicle id="492" depart="492.00">
        <route edges="4to5 5to9"/>
    </vehicle>
    <vehicle id="493" depart="493.00">
        <route edges="9to10 10to14 14to15 15to31"/>
    </vehicle>
    <vehicle id="494" depart="494.00">
        <route edges="5to6 6to10 10to11 11to15"/>
    </vehicle>
    <vehicle id="495" depart="495.00">
        <route edges="1to5 5to6 6to10 10to14"/>
    </vehicle>
    <vehicle id="496" depart="496.00">
        <route edges="21to4 4to8 8to9 9to13 13to14 14to15 15to31"/>
    </vehicle>
    <vehicle id="502" depart="502.00">
        <route edges="19to3 3to7 7to11 11to15 15to27"/>
    </vehicle>
    <vehicle id="505" depart="505.00">
        <route edges="4to5"/>
    </vehicle>
    <vehicle id="513" depart="513.00">
        <route edges="0to1 1to5 5to6 6to7 7to29"/>
    </vehicle>
    <vehicle id="514" depart="514.00">
        <route edges="11to15"/>
    </vehicle>
    <vehicle id="515" depart="515.00">
        <route edges="16to0 0to1 1to5 5to6 6to10 10to11 11to30"/>
    </vehicle>
    <vehicle id="517" depart="517.00">
        <route edges="0to1 1to5 5to6 6to7"/>
    </vehicle>
    <vehicle id="518" depart="518.00">
        <route edges="14to15"/>
    </vehicle>
    <vehicle id="528" depart="528.00">
        <route edges="21to4 4to8 8to9 9to13 13to14 14to15 15to27"/>
    </vehicle>
    <vehicle id="530" depart="530.00">
        <route edges="8to9 9to10 10to11"/>
    </vehicle>
    <vehicle id="536" depart="536.00">
        <route edges="2to6 6to10 10to14"/>
    </vehicle>
    <vehicle id="539" depart="539.00">
        <route edges="4to8 8to12 12to13"/>
    </vehicle>
    <vehicle id="540" depart="540.00">
        <route edges="20to0 0to4 4to8 8to12 12to24"/>
    </vehicle>
    <vehicle id="542" depart="542.00">
        <route edges="1to5 5to6 6to10 10to14"/>
    </vehicle>
    <vehicle id="544" depart="544.00">
        <route edges="19to3 3to7 7to11 11to15"/>
    </vehicle>
    <vehicle id="545" depart="545.00">
        <route edges="8to9 9to10 10to11"/>
    </vehicle>
    <vehicle id="550" depart="550.00">
        <route edges="18to2 2to6 6to10 10to14"/>
    </vehicle>
    <vehicle id="552" depart="552.00">
        <route edges="5to6 6to7 7to29"/>
    </vehicle>
    <vehicle id="553" depart="553.00">
        <route edges="4to8 8to9 9to10"/>
    </vehicle>
    <vehicle id="554" depart="554.00">
        <route edges="2to6 6to10 10to14 14to26"/>
    </vehicle>
    <vehicle id="564" depart="564.00">
        <route edges="16to0 0to1 1to5 5to6 6to10 10to11 11to30"/>
    </vehicle>
    <vehicle id="565" depart="565.00">
        <route edges="4to8 8to9 9to13 13to25"/>
    </vehicle>
    <vehicle id="568" depart="568.00">
        <route edges="1to2 2to6 6to7 7to11 11to15"/>
    </vehicle>
    <vehicle id="571" depart="571.00">
        <route edges="1to5 5to6 6to10 10to14 14to15"/>
    </vehicle>
    <vehicle id="576" depart="576.00">
        <route edges="4to5 5to9 9to13 13to14"/>
    </vehicle>
    <vehicle id="578" depart="578.00">
        <route edges="20to0 0to4 4to5 5to9 9to13 13to14"/>
    </vehicle>
    <vehicle id="579" depart="579.00">
        <route edges="5to9 9to10 10to14"/>
    </vehicle>
    <vehicle id="580" depart="580.00">
        <route edges="1to5 5to9 9to13 13to25"/>
    </vehicle>
    <vehicle id="583" depart="583.00">
        <route edges="1to2 2to3 3to7"/>
    </vehicle>
    <vehicle id="584" depart="584.00">
        <route edges="0to1 1to5 5to9 9to13 13to25"/>
    </vehicle>
    <vehicle id="586" depart="586.00">
        <route edges="16to0 0to1 1to5 5to6 6to10 10to14 14to15"/>
    </vehicle>
    <vehicle id="587" depart="587.00">
        <route edges="0to1 1to5 5to9"/>
    </vehicle>
    <vehicle id="588" depart="588.00">
        <route edges="12to13 13to14 14to15 15to27"/>
    </vehicle>
    <vehicle id="590" depart="590.00">
        <route edges="6to7"/>
    </vehicle>
    <vehicle id="594" depart="594.00">
        <route edges="2to3 3to28"/>
    </vehicle>
    <vehicle id="595" depart="595.00">
        <route edges="4to8 8to9 9to13 13to14 14to15 15to31"/>
    </vehicle>
    <vehicle id="597" depart="597.00">
        <route edges="18to2 2to6 6to7"/>
    </vehicle>
    <vehicle id="598" depart="598.00">
        <route edges="2to6 6to7 7to11"/>
    </vehicle>
    <vehicle id="599" depart="599.00">
        <route edges="8to9 9to10 10to11"/>
    </vehicle>
    <vehicle id="601" depart="601.00">
        <route edges="2to3"/>
    </vehicle>
    <vehicle id="603" depart="603.00">
        <route edges="18to2 2to6 6to10 10to14 14to15"/>
    </vehicle>
    <vehicle id="606" depart="606.00">
        <route edges="8to12 12to13 13to14 14to26"/>
    </vehicle>
    <vehicle id="607" depart="607.00">
        <route edges="5to6 6to7 7to11"/>
    </vehicle>
    <vehicle id="610" depart="610.00">
        <route edges="2to6 6to10"/>
    </vehicle>
    <vehicle id="611" depart="611.00">
        <route edges="3to7 7to11 11to30"/>
    </vehicle>
    <vehicle id="614" depart="614.00">
        <route edges="20to0 0to4 4to8 8to9"/>
    </vehicle>
    <vehicle id="616" depart="616.00">
        <route edges="2to6 6to7 7to29"/>
    </vehicle>
    <vehicle id="617" depart="617.00">
        <route edges="2to6 6to7 7to11 11to15"/>
    </vehicle>
    <vehicle id="619" depart="619.00">
        <route edges="17to1 1to5 5to9 9to13 13to14"/>
    </vehicle>
    <vehicle id="621" depart="621.00">
        <route edges="17to1 1to2"/>
    </vehicle>
    <vehicle id="622" depart="622.00">
        <route edges="0to4 4to5 5to6 6to7 7to11"/>
    </vehicle>
    <vehicle id="633" depart="633.00">
        <route edges="22to8 8to9 9to10 10to11 11to30"/>
    </vehicle>
    <vehicle id="634" depart="634.00">
        <route edges="14to15 15to31"/>
    </vehicle>
    <vehicle id="636" depart="636.00">
        <route edges="12to13 13to14 14to26"/>
    </vehicle>
    <vehicle id="637" depart="637.00">
        <route edges="17to1 1to2 2to6 6to7 7to11 11to15 15to31"/>
    </vehicle>
    <vehicle id="638" depart="638.00">
        <route edges="18to2 2to3 3to7"/>
    </vehicle>
    <vehicle id="641" depart="641.00">
        <route edges="4to5 5to9 9to13 13to25"/>
    </vehicle>
    <vehicle id="644" depart="644.00">
        <route edges="18to2 2to3 3to28"/>
    </vehicle>
    <vehicle id="647" depart="647.00">
        <route edges="1to2 2to3 3to28"/>
    </vehicle>
    <vehicle id="648" depart="648.00">
        <route edges="8to9 9to13 13to25"/>
    </vehicle>
    <vehicle id="653" depart="653.00">
        <route edges="3to7 7to11 11to15 15to31"/>
    </vehicle>
    <vehicle id="655" depart="655.00">
        <route edges="12to13"/>
    </vehicle>
    <vehicle id="661" depart="661.00">
        <route edges="0to4 4to5 5to9 9to10 10to14 14to15"/>
    </vehicle>
    <vehicle id="662" depart="662.00">
        <route edges="5to9 9to10 10to11 11to15"/>
    </vehicle>
    <vehicle id="663" depart="663.00">
        <route edges="19to3 3to7 7to11 11to30"/>
    </vehicle>
    <vehicle id="665" depart="665.00">
        <route edges="6to10 10to11 11to30"/>
    </vehicle>
    <vehicle id="666" depart="666.00">
        <route edges="1to5 5to6 6to10 10to11 11to15 15to31"/>
    </vehicle>
    <vehicle id="668" depart="668.00">
        <route edges="20to0 0to4 4to5 5to9 9to13 13to25"/>
    </vehicle>
    <vehicle id="670" depart="670.00">
        <route edges="22to8 8to12 12to13 13to25"/>
    </vehicle>
    <vehicle id="674" depart="674.00">
        <route edges="20to0 0to4 4to5 5to9 9to13 13to25"/>
    </vehicle>
    <vehicle id="675" depart="675.00">
        <route edges="1to2 2to3"/>
    </vehicle>
    <vehicle id="677" depart="677.00">
        <route edges="6to10 10to11 11to15"/>
    </vehicle>
    <vehicle id="678" depart="678.00">
        <route edges="16to0 0to4 4to5"/>
    </vehicle>
    <vehicle id="682" depart="682.00">
        <route edges="5to9 9to13 13to14"/>
    </vehicle>
    <vehicle id="684" depart="684.00">
        <route edges="1to5 5to9 9to10"/>
    </vehicle>
    <vehicle id="695" depart="695.00">
        <route edges="20to0 0to1"/>
    </vehicle>
</routes>
