<?xml version="1.0" encoding="UTF-8"?>

<!-- generated on 2023-08-08 20:09:50 by Eclipse SUMO duarouter Version 1.18.0
<configuration xmlns:xsi="http://www.w3.org/2001/XMLSchema-instance" xsi:noNamespaceSchemaLocation="http://sumo.dlr.de/xsd/duarouterConfiguration.xsd">

    <input>
        <net-file value="Ddnmap.net.xml"/>
        <route-files value="trips.trips.xml"/>
    </input>

    <output>
        <output-file value="Ddnmap.rou.xml"/>
    </output>

    <time>
        <begin value="0"/>
        <end value="500"/>
    </time>

    <report>
        <no-warnings value="true"/>
        <ignore-errors value="true"/>
        <no-step-log value="true"/>
    </report>

</configuration>
-->

<routes xmlns:xsi="http://www.w3.org/2001/XMLSchema-instance" xsi:noNamespaceSchemaLocation="http://sumo.dlr.de/xsd/routes_file.xsd">
    <vehicle id="0" depart="0.00">
        <route edges="1096669075 -1043384774#1 726040164#1 726040163#0 726040163#1 -1096681187#0 -1043384751#0 -726040165 726040155#0 -1043384759#0"/>
    </vehicle>
    <vehicle id="1" depart="1.00">
        <route edges="-403615545#3 403615545#3 403614707#7 -403578669#9 -403578669#8 -403578669#7 -403578669#6 -403578669#5 -403578669#4 -403578669#3 -403578669#2 -403578669#1 -403578669#0 -403652366#1 -403652366#0 -403578666#1 -403652367#3 -403652367#2 -403652367#1 -403652367#0 726637501#8 726637501#9 1096223625 -1043360107 1043360105 1095366923#0 1095366923#1 -403652691#3 -403652691#2 -403652691#1 -403652691#0 -403593684#1 -403593684#0 -403652690#1 403594068 -403594068"/>
    </vehicle>
    <vehicle id="2" depart="2.00">
        <route edges="403576293#2 726637501#4 726637501#5 726637501#6 726637501#7 726637501#8 726637501#9 726637501#10 726637501#11 726637501#12 726637501#13 726637501#14 726637501#15 726637501#16 726637501#17 726637501#18 726637501#19 726637501#20 726637501#21 234946834#0 234946834#1"/>
    </vehicle>
    <vehicle id="3" depart="3.00">
        <route edges="626886922#0 626886922#1 626886922#2 -626886923#6 -626886923#5 -626886923#4 -626886923#3 -626886923#2 -626886923#1 -626886923#0 227096329#3 227096329#4 227096329#5 227096329#6 227096329#7 227093572#1 227093572#2 227093572#3 227093572#4 227093572#5 1096473923#0 1096473923#1 1096473923#2 1096473923#3 1096473923#4 1096473923#5 -1096473924#11 -1096473924#10 -1096473924#9 -1096473924#8 -1096473924#7 -1096473924#6 -1096473924#5 -1096473924#4 -1096473924#3 -1096473924#2 -1096473924#1"/>
    </vehicle>
    <vehicle id="4" depart="4.00">
        <route edges="-725044815#0 -584511771#12 -584511771#11 -584511771#10 725044817#0 725044817#1 725044817#2 -625711143#0 -1096200286 726842352#0 726842352#1 726842352#2 227093572#3 227093572#4 227093572#5 1096473923#0 1096473923#1 1096473923#2 1096473923#3 1096473923#4 1096473923#5 -1096473924#11 -1096473924#10 -1096473924#9 -1096473924#8 -1096473924#7 -1096473924#6 -1096473924#5 -1096473924#4 -1043386153#3"/>
    </vehicle>
    <vehicle id="5" depart="5.00">
        <route edges="-234946834#3 -234946834#2 -234946834#1 -234946834#0 726637501#22 726637501#23 726637501#24 726637501#25 726637501#26 726842349#0 1092624769#0 1092624769#1 1092624769#2 1092624769#3 -114099376#16 -114099376#15 -114099376#14 -114099376#13 -114099376#12 -114099376#11 -114099376#10 -114099376#9 -114099376#8 -114099376#7 -114099376#6 -114099376#5 234924318#0 234924318#1 234924318#2 1096462276#0 1096462273 1096462274#2 1096462274#3 1092609895#0 1092609895#1 1092609896#0 1092609896#1"/>
    </vehicle>
    <vehicle id="6" depart="6.00">
        <route edges="-1043384741 726637501#19 726637501#20 726637501#21 1096222076 227093574#2 227093574#3 227093574#4 227093574#5 227093574#6 227093574#7 227093574#8 227093574#9 227093574#10 1096223624 403584657#0 403584657#1 403584657#2 403584657#3 403584657#4 403584657#5 403584657#6 403584657#7 403584657#8 403584657#9 403584657#10 403584657#11 403584657#12 403584657#13 403584657#14 -403578669#19 -403578669#18 -403578669#17"/>
    </vehicle>
    <vehicle id="7" depart="7.00">
        <route edges="1096688093#0 -1096688093#0 -726048432#3 -726048432#2 -726048432#1 -726048432#0 -625711134#2 -726048433 625711132#10 625711132#11 726048430#0 726048430#1 -1096473924#4 -1096473924#3 -1096473924#2 -1096473924#1 -1096473924#0 -227096330 1120261359#0 1120261359#1 -625711356#2 -625711356#1 -625711356#0 403625753#32 516221218#0 516221218#1 516221376#0 516221376#1 516221376#2 -1043362752 1043362751#0 1043362751#1 -516221469#3 -516221469#2 1043362756 1096217772#1"/>
    </vehicle>
    <vehicle id="8" depart="8.00">
        <route edges="-311063555#1 -311063555#0 234923681#22 234923681#23 725064364 725044817#0 725044817#1 725044817#2 -625711143#0 -1096200286 726842352#0 -1077909410 226824093#0 226824093#1 226824093#2 226824093#3 226824093#4 226824093#5 226824093#6 226824093#7 226824093#8 226824093#9 226824093#10 226824093#11 226824093#12 226824093#13 234946832#0 234946832#1 234946832#2 234946832#3 234946832#4 234946832#5 726040155#0 726040155#1 -1043384769 1043384763#1 1096683472#1 1096683472#2"/>
    </vehicle>
    <vehicle id="9" depart="9.00">
        <route edges="403627641#7 516221408 403625753#19 403625753#20 403625753#21 403625753#22 403625753#23 403625753#24 403625753#25 403625753#26 403625753#27 403625753#28 403625753#29 403625753#30 403625753#31 625711356#0 625711356#1 625711356#2 -1120261359#1 -1120261359#0 227096330 1096473924#0 -625711357 -516221356#13 -516221356#12 -516221356#11 -516221356#10 -516221356#9 -516221356#8 -516221356#7 -516221356#6 -516221356#5 -516221356#4 -516221356#3 -516221356#2 -403615543#3 -403615543#2 -403615543#1 -403615543#0 403615540#2 -403615558#2 -403615558#1 -403615558#0 -1043360547"/>
    </vehicle>
    <vehicle id="10" depart="10.00">
        <route edges="403627466#1 -403626730#5 -403626730#4 -403626730#3 -403626730#2 -403626730#1 -403626730#0 403625753#7 403625753#8 403625753#9 403625753#10 403625753#11 403625753#12 403625753#13 403625753#14 403625753#15 403625753#16 403625753#17 403625753#18 403625753#19 403625753#20 403625753#21 403625753#22 403625753#23 403625753#24 403625753#25 403625753#26 403625753#27 403625753#28 403625753#29 403625753#30 403625753#31 625711356#0 625711356#1 625711356#2 -1120261359#1 -1120261359#0 227096330 1096473924#0 -625711357 -516221356#13 -516221356#12 -516221356#11 -516221356#10 -516221356#9 -516221356#8 -516221356#7 -516221356#6 -516221356#5 -516221356#4 -516221356#3 -516221356#2 -516221356#1 -516221356#0 -403578669#10 -403578669#9 -403578669#8 -403578669#7 -403578669#6 403578669#6"/>
    </vehicle>
    <vehicle id="11" depart="11.00">
        <route edges="-516221344#3 -516221244 516221238#2 516221238#3 516221348#0 516221348#1 516221348#2 516221348#3 -403585220 726637501#16 726637501#17 726637501#18 726637501#19 726637501#20 726637501#21 726637501#22 726637501#23 726637501#24 726637501#25 726637501#26 726842349#0 726842349#1 726842351#0 726842351#1 227093572#5 227093572#6 227093572#0 227093572#1 726842350#0 726842350#1 226824093#0 226824093#1 226824093#2 226824093#3 -234927887#2 -234927887#1 -234927887#0"/>
    </vehicle>
    <vehicle id="12" depart="12.00">
        <route edges="726040014#0 -726040014#0 1179911843#3 -571657721#11 -571657721#10 -571657721#9 -571657721#8 -571657721#7 -571657721#6 -571657721#5 -571657721#4 -571657721#3 -571657721#2 -571657721#1 1043386162 -1120261359#3 -1120261359#2 -1120261359#1 -1120261359#0 227096330 1096473924#0 1096473924#1 1096473924#2 1096473924#3 -1043386153#3 -1043386153#2 -1043386153#1 -1043386153#0 1043386156#1 1043386156#2 -625711132#7 -625711132#6 -625711132#5 -625711132#4 -625711132#3 -625711132#2"/>
    </vehicle>
    <vehicle id="13" depart="13.00">
        <route edges="-1096196776#0 725064384#4 234923681#21 234923681#22 234923681#23 725064364 725044817#0 725044817#1 725044817#2 -625711143#0 -1096200286 726842352#0 726842352#1 726842352#2 227093572#3 227093572#4 227093572#5 1096473923#0 1096473923#1 1096473923#2 1096473923#3 1096473923#4 1096473923#5 -1096473924#11 -1096473924#10 -1096473924#9 -1096473924#8 -1096473924#7 -1096473924#6 -1096473924#5 -1096473924#4 -1096473924#3 1096514185#0 1096514185#1 -1096514185#1"/>
    </vehicle>
    <vehicle id="14" depart="14.00">
        <route edges="516221414#0 -516221414#0 -516221344#4 -516221344#3 -516221244 516221238#2 516221238#3 516221348#0 516221348#1 516221348#2 516221348#3 -403585220 726637501#16 726637501#17 726637501#18 726637501#19 726637501#20 726637501#21 234946834#0 234946834#1 234946834#2 234946834#3 234946834#4 234946834#5 234946834#6 234946834#7 234946834#8 234946834#9 234946834#10 -1096473924#10 -1096473924#9 -1096473924#8 -1096473924#7 -1096473924#6 -1096473924#5 -1096473924#4 -1096473924#3 -1096473924#2 -1096473924#1 -1096473924#0 -227096330 1120261359#0 1120261359#1 -625711356#2 -625711356#1 -625711356#0 -403625753#31 -403625753#30 -403625753#29 -403625753#28 -403625753#27 -403625753#26 -403625753#25 -403625753#24 -403625753#23 -403625753#22 -403625753#21 -403625753#20 -403625753#19 -403625753#18 -403625753#17 -403625753#16 -403625753#15 -403625753#14 1096878205"/>
    </vehicle>
    <vehicle id="15" depart="15.00">
        <route edges="403627641#0 403627641#1 403627641#2 403627640#0 403627640#1 403627640#2 403627640#3 403625753#13 403625753#14 403625753#15 403625753#16 403625753#17 403625753#18 403625753#19 403625753#20 403625753#21 403625753#22 403625753#23 403625753#24 403625753#25 403625753#26 403625753#27 403625753#28 403625753#29 403625753#30 403625753#31 625711356#0 625711356#1 625711356#2 -1120261359#1 -1120261359#0 227096330 1096473924#0 -625711357 -516221356#13 -516221356#12 -516221356#11 -516221356#10 -516221356#9 -516221356#8 -516221356#7 -516221356#6 -516221356#5 -516221356#4 516221352#0 516221352#1 516221352#2 -403618958#1 -403618958#0 -403615540#8 -1095794550#4 -1095794550#3 -1095794550#2 -1095794550#1 -403615547 403614708#1"/>
    </vehicle>
    <vehicle id="16" depart="16.00">
        <route edges="1043360574 403625631#2 -403628490 403625753#8 403625753#9 403625753#10 403625753#11 403625753#12 403625753#13 403625753#14 403625753#15 403625753#16 403625753#17 403625753#18 403625753#19 403625753#20 403625753#21 403625753#22 403625753#23 403625753#24 403625753#25 403625753#26 403625753#27 403625753#28 403625753#29 403625753#30 403625753#31 625711356#0 625711356#1 625711356#2 -1120261359#1 -1120261359#0 227096330 1096473924#0 1096473924#1 1096473924#2 1096473924#3 1096473924#4 1096473924#5 1096473924#6 1096473924#7 1096473924#8 1096473924#9 1096473924#10 1096473924#11 227096329#0 227096329#1 227096329#2 626886923#0 626886923#1 626886920#0 -726078773#2 -726078773#1 726078773#1"/>
    </vehicle>
    <vehicle id="17" depart="17.00">
        <route edges="-571657729#7 -571657729#6 -571657729#5 -571657729#4 -1043386168 1043386169 -725782331#1 -725782331#0 571657721#5 571657721#6 571657721#7 571657721#8 725784208#0 725784208#1 725784208#2 1096236974"/>
    </vehicle>
    <vehicle id="18" depart="18.00">
        <route edges="516221239#1 -516221239#1 -516221239#0 516221453#2 516221453#3 403625753#29 403625753#30 403625753#31 625711356#0 625711356#1 625711356#2 -1120261359#1 -1120261359#0 227096330 1096473924#0 1096473924#1 1096473924#2 1096473924#3 1096473924#4 1096473924#5 1096473924#6 1096473924#7 1096473924#8 1096473924#9 1096473924#10 1096473924#11 227096329#0 227096329#1 227096329#2 227096329#3 227096329#4 227096329#5 227096329#6 227096329#7 227093572#1 726842350#0 726842350#1 226824093#0 226824093#1 226824093#2 226824093#3 226824093#4 226824093#5 226824093#6 226824093#7 226824093#8 226824093#9 226824093#10 226824093#11"/>
    </vehicle>
    <vehicle id="19" depart="19.00">
        <route edges="516221469#0 516221469#1 516221469#2 516221469#3 -1043362751#1 -1043362751#0 1043362752 -516221376#2 -516221376#1 -516221376#0 -516221218#1 -516221218#0 -403625753#32 625711356#0 625711356#1 625711356#2 -1120261359#1 -1120261359#0 227096330 1096473924#0 1096473924#1 1096473924#2 1096473924#3 1096473924#4 1096473924#5 1096473924#6 1096473924#7 1096473924#8 1096473924#9 1096473924#10 1096473924#11 227096329#0 227096329#1 227096329#2 227096329#3 227096329#4 227096329#5 227096329#6 227096329#7 227093572#1 227093572#2 227093572#3 722161014#0 722161014#1 722161014#2 726842348#0 726842348#1 1092624769#1 1092624769#2 1092624769#3 1092624769#4 -1096514394#17 -1096514394#16 -1096514394#15 -1096514394#14 -1096514394#13 -1096514394#12 -1096514394#11 -1096514394#10 -1096514394#9 -1096514394#8 1096514394#8"/>
    </vehicle>
    <vehicle id="20" depart="20.00">
        <route edges="234946263#0 -234946263#0 234936175#2 234936175#3 234936175#4 234936175#5 234936175#6 234936175#7 1096514393 1096514394#0 1096514394#1 1096514394#2 1096514394#3 1096514394#4 1096514394#5 1096514394#6 1096514394#7 1096514394#8 1096514394#9 -1093715600#4 1067062822 1067056841#0 1067056841#1 1067056847#0 1067056847#1 1067056848#0 1067056848#1 1067056849#2 1067056849#3 1067056849#4 1067056849#5 1067056849#6 -1067056854 -226985442#1 -1067058788#2 -1067058788#1 -1067058789 -1067058790 -1067058796#3 -1067058796#2"/>
    </vehicle>
    <vehicle id="21" depart="21.00">
        <route edges="-403576292#1 -403576292#0 403576296#2 403576295#0 403576293#0 403576293#1 403576293#2 726637501#4 726637501#5 726637501#6 726637501#7 726637501#8 726637501#9 726637501#10 726637501#11 726637501#12 726637501#13 726637501#14 726637501#15 403585220 516221348#4 516221348#5 516221348#6 -516221238#2 516221244 -516221344#2"/>
    </vehicle>
    <vehicle id="22" depart="22.00">
        <route edges="-1095834031 -1043386152#1 -625711135#4 -625711135#3 -625711135#2 -625711135#1 -625711135#0 1043386161#0 1043386161#1 625711132#7 -1043386156#2 -1043386156#1 1043386153#0 1043386153#1 1043386153#2 1043386153#3 -1096473924#3 -1096473924#2 -1096473924#1 -625711357 -516221356#13 -516221356#12 -516221356#11 -516221356#10 -516221356#9 -516221356#8 -516221356#7 -516221356#6 -516221356#5 -516221356#4 -516221356#3 -516221356#2 -403615543#3 -403615543#2"/>
    </vehicle>
    <vehicle id="23" depart="23.00">
        <route edges="-1096214885 516221236#6 -1120261359#2 -1120261359#1 -1120261359#0 227096330 1096473924#0 -625711357 -516221356#13 -516221356#12 -516221356#11 -516221356#10 -1043360561 -516221234#2"/>
    </vehicle>
    <vehicle id="24" depart="24.00">
        <route edges="1096516206 234936175#3 234936175#4 234936175#5 234936175#6 234936175#7 1096514393 1096514394#0 1096514394#1 1096514394#2 1096514394#3 1096514394#4 1096514394#5 1096514394#6 1096514394#7 1096514394#8 1096514394#9 1096514394#10 1096514394#11 1096514394#12 1096514394#13 1096514394#14 234923681#0 234923681#1 234923681#2 234923681#3 234923681#4 234923681#5 234923681#6 234923681#7 234923681#8 234923681#9 234923681#10 234923681#11 234923681#12 234923681#13 234923681#14 234923681#15 234923681#16 234923681#17 234923681#18 725064385#0 725064384#0 -725064384#0"/>
    </vehicle>
    <vehicle id="25" depart="25.00">
        <route edges="-516221464#1 516221464#1 -1043360596 516221354#3 -516221218#1 -516221218#0 -403625753#32 625711356#0 625711356#1 625711356#2 -1120261359#1 -1120261359#0 227096330 1096473924#0 -625711357 -516221356#13 -516221356#12 -516221356#11 -516221356#10 -516221356#9 -516221356#8 -516221356#7 -516221356#6 -516221356#5 -516221356#4 -516221356#3 -516221356#2 -516221356#1 -516221356#0 -403578669#10 -403578669#9 -403578669#8 -403578669#7 -403578669#6 -403578669#5 -403578669#4 -403578669#3 -403578669#2 403579255 403652309 -1062780395 -403584091#1 -403584653"/>
    </vehicle>
    <vehicle id="26" depart="26.00">
        <route edges="-403614706#1 403614706#1 -403575826#3 -403575826#2 -403575826#1 -403575826#0 726637501#1 726637501#2 1096225663 1098488050#0 1098488050#1 -226985442#17 -226985442#16 -226985442#15 -226985442#14 -226985442#13 -226985442#12 -226985442#11 -226985442#10 -226985442#9 -226985442#8 -226985442#7 725338290"/>
    </vehicle>
    <vehicle id="27" depart="27.00">
        <route edges="1096688088#4 -1096688088#4 1096688092#0 1096688092#1 1096688092#2 -1043386160 -726048432#1 -726048432#0 -625711134#2 -726048433 625711132#10 625711132#11 726048430#0 726048430#1 1096473924#5 1096473924#6 1096473924#7 1096473924#8 1096473924#9 1096473924#10 1096473924#11 227096329#0 227096329#1 227096329#2 227096329#3 227096329#4 227096329#5 227096329#6 227096329#7 227093572#1 726842350#0 726842350#1 726842355#0 726842355#1 726842355#2 726842355#3 726842355#4 726842358#0 726842358#1 726842358#2 114099376#0 114099376#1"/>
    </vehicle>
    <vehicle id="28" depart="28.00">
        <route edges="-226824093#6 -226824093#5 -226824093#4 -226824093#3 -226824093#2 -226824093#1 -226824093#0 1077909410 726842352#1 726842352#2 227093572#3 227093572#4 227093572#5 1096473923#0 1096473923#1 1096473923#2 1096473923#3 1096473923#4 1096473923#5 -1096473924#11 -1096473924#10 -1096473924#9 -1096473924#8 -1096473924#7 -1096473924#6 -1096473924#5 625711130#0 625711130#1 625711130#2 625711130#3 625711130#4 -403584657#22 -403584657#21 -403584657#20 -403584657#19 -403584657#18 -403584657#17 -403584657#16 -403584657#15 -403578669#19 -403578669#18 -403578669#17 -403578669#16 -403578669#15 -403578669#14 -403578669#13 -403578669#12 -403578669#11 -403578669#10 -403614707#7 -403614707#6 -403614707#5 403614707#5"/>
    </vehicle>
    <vehicle id="29" depart="29.00">
        <route edges="-114099376#7 114099376#7 114099376#8 114099376#9 114099376#10 114099376#11 114099376#12 114099376#13 114099376#14 114099376#15 114099376#16 1092624769#4 -1096514394#17 -1096514394#16 -1096514394#15 234923681#0 234923681#1 234923681#2 234923681#3 234923681#4 234923681#5 725079465#0 -725079464#3 -725079461#1 -725079461#0 -725079463#1 -725079463#0 -725079465#5 -725079465#4"/>
    </vehicle>
    <vehicle id="30" depart="30.00">
        <route edges="726842350#1 1077909410 726842352#1 726842352#2 227093572#3 722161014#0 722161014#1 722161014#2 726842348#0 726842348#1 1092624769#1 1092624769#2 1092624769#3 1092624769#4 -1096514394#17 -1096514394#16 -1096514394#15 234923681#0"/>
    </vehicle>
    <vehicle id="31" depart="31.00">
        <route edges="1043386159#0 -625711135#1 -625711135#0 1043386161#0 1043386161#1 625711132#7 625711132#8 625711132#9 625711132#10 625711132#11 726048430#0 726048430#1 625711130#0 625711130#1 625711130#2 625711130#3 625711130#4 -403584657#22 -403584657#21 -403584657#20 -403584657#19 -403584657#18 -403584657#17 -403584657#16 -403584657#15 -403584657#14 -403584657#13 -403584657#12 -403584657#11 -403584657#10 -403584657#9 -403584657#8 -403584657#7 -403584657#6 -403584657#5 -403584657#4 -403584657#3 -403584657#2 -403584657#1 -403584657#0 -1096223624 227093574#11 227093574#12 227093574#13 -1043360107 1043360105 1095366923#0 1095366923#1 403652691#4 403652692#0 403652692#1 -90104245#6 -90104245#5 -90104245#4 -90104245#3 403574914#0 403574914#1 403574914#2 403574915#1 403574915#2"/>
    </vehicle>
    <vehicle id="32" depart="32.00">
        <route edges="516221356#7 -516221356#7 -516221356#6 -516221356#5 -516221356#4 -516221356#3 -516221356#2 -516221356#1 -516221356#0 -403578669#10 -403578669#9 -403578669#8 -403578669#7 403580620#0 -1043360141 -403578666#5 -1043360140 403580271#0 403580271#1 403580271#2 403580271#3 -1043360145 -403576295#2 403576419#0 -403652591 -403652592 403652592"/>
    </vehicle>
    <vehicle id="33" depart="33.00">
        <route edges="-403576295#0 403576295#0 403576295#1 403576295#2 1043360145 -403580271#3 -403580271#2 -403580271#1 -403580271#0 1043360140 403578666#5 1043360141 -403580620#0 403578669#7 403578669#8 403578669#9 403578669#10 403578669#11 403578669#12 403578669#13 403578669#14 403578669#15 403578669#16 403578669#17 403578669#18 403578669#19 403584657#15 403584657#16 403584657#17 403584657#18 403584657#19 403584657#20 403584657#21 403584657#22 -625711130#4 -625711130#3 -625711130#2 -625711130#1 -625711130#0 -726048430#1 -726048430#0 -625711132#11 -625711132#10 726048433 625711134#2 726048432#0 726048432#1 1043386160 -1043386160"/>
    </vehicle>
    <vehicle id="34" depart="34.00">
        <route edges="-403652446#3 -403652446#2 -403652446#1 -403652446#0 227093574#18 -726637500 726637501#5 726637501#6 726637501#7 403652367#0 403652367#1 403652367#2 403652367#3 403578666#1 403652366#0 403652366#1 403578669#0 403579264#0 403579264#1 -403652311#1 -403652311#0"/>
    </vehicle>
    <vehicle id="35" depart="35.00">
        <route edges="-234946819#6 -234946795 -234946819#4 -234946819#3 -234946819#2 -234946819#1 -234946819#0 1096514394#13 1096514394#14 1096514394#15 1096514394#16 1096514394#17 1092624768#0 1092624768#1 1092624768#2 1092624768#3 726842349#0 726842349#1 726842351#0 726842351#1 227093572#5 1096473923#0 1096473923#1 1096473923#2 1096473923#3 1096473923#4 1096473923#5 -1096473924#11 -1096473924#10 -1096473924#9 -1096473924#8 -1096473924#7 -1096473924#6 -1096473924#5 -1096473924#4 -1096473924#3 -1096473924#2 -1096473924#1 -1096473924#0 -227096330 1120261359#0 1120261359#1 -625711356#2 -625711356#1 -625711356#0 -403625753#31 -403625753#30 -403625753#29 -403625753#28 -403625753#27 -403625753#26 -403625753#25 -403625753#24 -403625753#23 -403625753#22 -403625753#21 -403625753#20 -403625753#19 -403625753#18 -403625753#17 -1096687650 -725819182#0 725819182#0"/>
    </vehicle>
    <vehicle id="36" depart="36.00">
        <route edges="587990663#2 587990663#3 -234946831#0 -1095806207#2 -1095806207#1 -1095806207#0 -1096473924#10 -1096473924#9 -1096473924#8 -1096473924#7 -1096473924#6 -1096473924#5 625711130#0 625711130#1 625711130#2 625711130#3 625711130#4 -403584657#22 -403584657#21 -403584657#20 -403584657#19 -1043360558 -516221241#3 -516221241#2 516221467#0 516221467#1 -516221467#1"/>
    </vehicle>
    <vehicle id="37" depart="37.00">
        <route edges="1098488050#0 -1098488050#0 -1096225663 726637501#3 726637501#4 726637501#5 726637501#6 726637501#7 726637501#8 726637501#9 726637501#10 726637501#11 726637501#12 726637501#13 726637501#14 726637501#15 726637501#16 1096204623 403593514#0 403593514#1 403593514#2 403593514#3 403593514#4 1056790518 516221235#3 -516221229#2 -516221229#1 -516221229#0 234923671#12 234923671#13 1093715600#0 1093715600#1 1093715600#2 1093715600#3 1093715600#4 -1096514394#9 -1096514394#8 -1096514394#7 -1096514394#6 -1096514394#5 -1096514394#4 -1096514394#3 -1096514394#2 -1096514394#1 -725262704#2"/>
    </vehicle>
    <vehicle id="38" depart="38.00">
        <route edges="725064385#4 -725064385#4 725064374#0 725064372#0 725064372#1 725064372#2 725064372#3 -725064382#1 -725064382#0 -311063555#3 -311063555#2 -311063555#1 -311063555#0 234923681#22 234923681#23 725064364 725044817#0 725044817#1 725044817#2 -625711143#0 -1096200286 726842352#0 726842352#1 726842352#2 227093572#3 227093572#4 227093572#5 1096473923#0 1096473923#1 1096473923#2 1096473923#3 1096473923#4 1096473923#5 -1096473924#11 -1096473924#10 -1096473924#9 -1096473924#8 -1096473924#7 -1096473924#6 -1096473924#5 -1096473924#4 -1096473924#3 -1096473924#2 -1096473924#1 -1096473924#0 -227096330 1120261359#0 1120261359#1 -625711356#2 -625711356#1 -625711356#0 403625753#32 516221218#0 516221218#1 516221376#0 516221376#1 516221376#2 -1043362752 1043362752"/>
    </vehicle>
    <vehicle id="39" depart="39.00">
        <route edges="-403594070#0 -403594069#0 -403594071#0 -1095366923#1 -1095366923#0 -1043360105 1043360107 -1096223625 726637501#10 726637501#11 726637501#12 726637501#13 403584657#0 403584657#1 403584657#2 403584657#3 403584657#4 403584657#5 403584657#6 403584657#7 403584657#8 403584657#9 403584657#10 403584657#11 403584657#12 403584657#13 403584657#14 -403578669#19 516221241#0 516221241#1 516221241#2 -516221242#1 -516221242#0 516221356#8 516221356#9 516221356#10 516221356#11 516221356#12 516221356#13 625711357 -1096473924#0 -227096330 1120261359#0 1120261359#1 -625711356#2 -625711356#1 -625711356#0 -403625753#31 -403625753#30 -403625753#29 -403625753#28 -403625753#27 -403625753#26 -403625753#25 -403625753#24 -403625753#23 -403625753#22 -403625753#21 -403625753#20 -403625753#19 -403625753#18 -403625753#17"/>
    </vehicle>
    <vehicle id="40" depart="40.00">
        <route edges="1067056835 1067056837#2 1096224307#0 1067056839 -1067056841#0 -1067062822 1093715600#4 1096514394#10 1096514394#11 1096514394#12 1096514394#13 1096514394#14 1096514394#15 1096514394#16 1096514394#17 1092624768#0 1092624768#1 1092624768#2 1092624768#3 726842349#0 726842349#1 726842351#0 726842351#1 227093572#5 1096473923#0 1096473923#1 1096473923#2 1096473923#3 1096473923#4 1096473923#5 -1096473924#11 -1096473924#10 -1096473924#9 -1096473924#8 -1096473924#7 -1096473924#6 -1096473924#5 -1096473924#4 -1096473924#3 -1096473924#2 -1096473924#1 -1096473924#0 -227096330 1120261359#0 1120261359#1 -625711356#2 -625711356#1 -625711356#0 -403625753#31 -403625753#30 -403625753#29 -403625753#28 -403625753#27 -403625753#26 -403625753#25 -403625753#24 -403625753#23 -403625753#22 -403625753#21 -403625753#20 -403625753#19 -403625753#18 -403625753#17 -403625753#16 -403625753#15 -403625753#14 -403625753#13 -403627640#3 -403627640#2 -403627640#1 -403627640#0 403627641#3 403627641#4 -403627641#4 -403627641#3"/>
    </vehicle>
    <vehicle id="41" depart="41.00">
        <route edges="1095794550#0 -1095794550#0 -403615554#1 -403617323 -403614706#4 -403614706#3 -403614706#2 -403575826#3 -403575826#2 -403575826#1 -403575826#0 726637501#1 726637501#2 726637501#3 726637501#4 726637501#5 726637501#6 726637501#7 726637501#8 726637501#9 726637501#10 726637501#11 726637501#12 726637501#13 726637501#14 726637501#15 726637501#16 726637501#17 726637501#18 726637501#19 726637501#20 726637501#21 726637501#22 726637501#23 726637501#24 726637501#25 726637501#26 726842349#0 1092624769#0 1092624769#1 1092624769#2 1092624769#3 -114099376#16 -114099376#15 -114099376#14 -114099376#13 -114099376#12 -584511771#17 -584511771#16 -584511771#15 -584511771#14 -584511771#13 -584511771#12 725044813#0 -1081310945 -725064394 -725064395#1 725064395#1"/>
    </vehicle>
    <vehicle id="42" depart="42.00">
        <route edges="-625711135#5 -625711135#4 -625711135#3 -625711135#2 -625711135#1 -625711135#0 1043386161#0 1043386161#1 625711132#7 625711132#8 625711132#9 625711132#10 625711132#11 726048430#0 726048430#1 1096473924#5 1096473924#6 1096473924#7 1096473924#8 1096473924#9 1096473924#10 -234946834#10 -234946834#9 -234946834#8 -234946834#7 -234946834#6 -234946834#5 -234946834#4 -234946834#3 -234946834#2 -234946834#1 -234946834#0 1096222076 227093574#2 227093574#3 227093574#4 227093574#5 227093574#6 227093574#7 227093574#8 403593514#0 403593514#1 403593514#2 403593516 -403593516"/>
    </vehicle>
    <vehicle id="43" depart="43.00">
        <route edges="90104245#24 90104245#25 90104245#26 90104245#27 1092624768#1 1092624768#2 1092624768#3 726842349#0 726842349#1 726842351#0 726842351#1 227093572#5 1096473923#0 1096473923#1 1096473923#2 1096473923#3 1096473923#4 1096473923#5 -1096473924#11 -1096473924#10 -1096473924#9 -1096473924#8 -1096473924#7 -1096473924#6 -1096473924#5 -1096473924#4 -1096473924#3 -1096473924#2 -1096473924#1 -1096473924#0 -227096330 1120261359#0 1120261359#1 -625711356#2 -625711356#1 -625711356#0 -403625753#31 -403625753#30 -403625753#29 -403625753#28 -403625753#27 -403625753#26 -403625753#25 -403625753#24 -403625753#23 -403625753#22 -1095320402#1 1095320402#1"/>
    </vehicle>
    <vehicle id="44" depart="44.00">
        <route edges="-1096196770#0 -725064385#1 -725064385#0 -234923681#18 -234923681#17 -234923681#16 -234923681#15 -234923681#14 -234923681#13 -234923681#12 -234923681#11 -234923681#10 -234923681#9 -234923681#8 -234923681#7 -234923681#6 -234923681#5 -234923681#4 -234923681#3 -234923681#2 -234923681#1 -234923681#0 -1096514394#14 -1096514394#13 -1096514394#12 -1096514394#11 -1096514394#10 -1093715600#4 1067062822 1067056841#0 1067056841#1 1067056847#0 1067056847#1 1067056848#0 1067056848#1 1067056849#2 1067056849#3 1067056849#4 1067056849#5 1067056849#6 -1067056854 -226985442#1 -1067058788#2 -1067058788#1 -1067058788#0 1067058794#0 1067058794#1 -1067058797#1 -1067058799"/>
    </vehicle>
    <vehicle id="45" depart="45.00">
        <route edges="-1096461429#1 -1096461429#0 -234946263#0 234936175#2 234936175#3 234936175#4 234936175#5 234936175#6 234936175#7 1096514393 1096514394#0 1096514394#1 1096514394#2 1096514394#3 1096514394#4 1096514394#5 1096514394#6 1096514394#7 1096514394#8 1096514394#9 1096514394#10 1096514394#11 1096514394#12 1096514394#13 1096514394#14 1096514394#15 1096514394#16 1096514394#17 1092624768#0 1092624768#1 1092624768#2 1092624768#3 726842349#0 726842349#1 726842351#0 726842351#1 227093572#5 227093572#6 227093572#0"/>
    </vehicle>
    <vehicle id="46" depart="46.00">
        <route edges="403625753#16 403625753#17 403625753#18 403625753#19 403625753#20 403625753#21 403625753#22 403625753#23 403625753#24 403625753#25 403625753#26 403625753#27 403625753#28 403625753#29 403625753#30 403625753#31 625711356#0 625711356#1 625711356#2 -1120261359#1 -1120261359#0 227096330 1096473924#0 1096473924#1 1096473924#2 1096473924#3 1096473924#4 1096473924#5 -625711132#14 726048431#0 726048431#1 -726048431#1"/>
    </vehicle>
    <vehicle id="47" depart="47.00">
        <route edges="-1079382908 90104245#21 90104245#22 90104245#23 90104245#24 90104245#25 90104245#26 90104245#27 -114099376#17 -114099376#16 -114099376#15 725237890#0 725237889#0 725237888#0 -725237888#0"/>
    </vehicle>
    <vehicle id="48" depart="48.00">
        <route edges="90104245#19 -1067056831#1 1096218844#3 1096218844#4 1096218844#5 1096218844#6 1096218844#7 1096218844#8 1096218844#9 1096514394#15 1096514394#16 1096514394#17 -722135667#3 -722135667#2 -722135667#1 -722135667#0 -1096196754#1 1096196754#1"/>
    </vehicle>
    <vehicle id="49" depart="49.00">