<?xml version="1.0" encoding="UTF-8"?>

<!-- generated on 2024-03-13 11:42:59.507033 by randomTrips.py v1_18_0+0000-03ecfdea036
<configuration>
    <net-file value="test.net.xml"/>
    <route-file value="map.rou.xml"/>
    <length value="True"/>
    <validate value="True"/>
    <end value="1000.0"/>
</configuration>
-->

<!-- generated on 2024-03-13 11:42:59 by Eclipse SUMO duarouter Version 1.18.0
<configuration xmlns:xsi="http://www.w3.org/2001/XMLSchema-instance" xsi:noNamespaceSchemaLocation="http://sumo.dlr.de/xsd/duarouterConfiguration.xsd">

    <input>
        <net-file value="test.net.xml"/>
        <route-files value="trips.trips.xml"/>
    </input>

    <output>
        <output-file value="map.rou.xml"/>
        <alternatives-output value="NUL"/>
    </output>

    <time>
        <begin value="0"/>
        <end value="1000.0"/>
    </time>

    <report>
        <no-warnings value="true"/>
        <ignore-errors value="true"/>
        <no-step-log value="true"/>
    </report>

</configuration>
-->

<routes xmlns:xsi="http://www.w3.org/2001/XMLSchema-instance" xsi:noNamespaceSchemaLocation="http://sumo.dlr.de/xsd/routes_file.xsd">
    <vehicle id="0" depart="0.00">
        <route edges="-723696844#9 -723696844#8 -723696844#7 -723696844#6 -723696844#5 -723696844#4 -723696844#3 -723696844#2 -723696844#1 570838812#0 570838812#1 1049316388#0 -724848588#1 724848585#0 724848585#1 724848585#2"/>
    </vehicle>
    <vehicle id="1" depart="1.00">
        <route edges="-723696844#9 -723696844#8 -723696844#7 -723696844#6 -723696844#5 -723696844#4 -723696844#3 -723696844#2 -723696844#1 570838812#0 570838812#1 1049316388#0 -724848588#1 724848585#0 724848585#1 724848585#2 -390947525#4"/>
    </vehicle>
    <vehicle id="2" depart="2.00">
        <route edges="-723696844#9 -723696844#8 -723696844#7 -723696844#6 -723696844#5 -723696844#4 -723696844#3 -723696844#2 -723696844#1 570838812#0 570838812#1 1049316388#0 -724848588#1 724848585#0 724848585#1 724848585#2 -390947525#4 -390947525#3"/>
    </vehicle>
    <vehicle id="3" depart="3.00">
        <route edges="-723696844#9 -723696844#8 -723696844#7 -723696844#6 -723696844#5 -723696844#4 -723696844#3 -723696844#2 -723696844#1 570838812#0 570838812#1 1049316388#0 -724848588#1 724848585#0 724848585#1 724848585#2 -390947525#4 -390947525#3 -390947525#2 -390947525#1"/>
    </vehicle>
    <vehicle id="4" depart="4.00">
        <route edges="-723696844#9 -723696844#8 -723696844#7 -723696844#6 -723696844#5 -723696844#4 -723696844#3 -723696844#2 -723696844#1 570838812#0 570838812#1 1049316388#0 -724848588#1 724848585#0 724848585#1 724848585#2 -390947525#4 -390947525#3 -390947525#2 -390947525#1 -390947525#0"/>
    </vehicle>
    <vehicle id="5" depart="5.00">
        <route edges="-723696844#9 -723696844#8 -723696844#7 -723696844#6 -723696844#5 -723696844#4 -723696844#3 -723696844#2 -723696844#1 570838812#0 570838812#1 1049316388#0 -724848588#1 724848585#0 724848585#1 724848585#2 -390947525#4 -390947525#3 -390947525#2 -390947525#1 -390947525#0 390947581#1"/>
    </vehicle>
    <vehicle id="6" depart="6.00">
        <route edges="1049308998 -569836710#10 -569836710#9 -569836710#8 -569836710#7 -1049309001 -569836708#1 1049316381#0 1049316381#1 -724848601#6 1049316383#1 -724848592#3 -724848592#2 724848591#0 724848590#0 724848590#1 234938035#14 1095096687 1049316388#0 1049316388#1 724848586#1 724848584#1 -1049316392 -724848583#3 -724848583#2 -724848583#1 -724848583#0 390947525#3 390947525#4"/>
    </vehicle>
    <vehicle id="7" depart="7.00">
        <route edges="1049308998 -569836710#10 -569836710#9 -569836710#8 -569836710#7 -1049309001 -569836708#1 1049316381#0 1049316381#1 -724848601#6 1049316383#1 -724848592#3 -724848592#2 724848591#0 724848590#0 724848590#1 234938035#14 1095096687 1049316388#0 1049316388#1 724848586#1 724848584#1 -1049316392 -724848583#3 -724848583#2 -724848583#1 -724848583#0 390947525#3"/>
    </vehicle>
    <vehicle id="8" depart="8.00">
        <route edges="1049308998 -569836710#10 -569836710#9 -569836710#8 -569836710#7 -1049309001 -569836708#1 1049316381#0 1049316381#1 -724848601#6 1049316383#1 -724848592#3 -724848592#2 724848591#0 724848590#0 724848590#1 234938035#14 1095096687 1049316388#0 1049316388#1 724848586#1 724848584#1 -1049316392 -724848583#3 -724848583#2 -724848583#1 -724848583#0"/>
    </vehicle>
    <vehicle id="9" depart="9.00">
        <route edges="1049308998 -569836710#10 -569836710#9 -569836710#8 -569836710#7 -1049309001 -569836708#1 1049316381#0 1049316381#1 -724848601#6 1049316383#1 -724848592#3 -724848592#2 724848591#0 724848590#0 724848590#1 234938035#14 1095096687 1049316388#0 1049316388#1 724848586#1 724848584#1 -1049316392 -724848583#3 -724848583#2 -724848583#1 -724848583#0 -390947525#2 -390947525#1"/>
    </vehicle>
    <vehicle id="10" depart="10.00">
        <route edges="1049308998 -569836710#10 -569836710#9 -569836710#8 -569836710#7 -1049309001 -569836708#1 1049316381#0 1049316381#1 -724848601#6 1049316383#1 -724848592#3 -724848592#2 724848591#0 724848590#0 724848590#1 234938035#14 1095096687 1049316388#0 1049316388#1 724848586#1 724848584#1 -1049316392 -724848583#3 -724848583#2 -724848583#1 -724848583#0 -390947525#2 -390947525#1 -390947525#0"/>
    </vehicle>
    <vehicle id="11" depart="11.00">
        <route edges="1049308998 -569836710#10 -569836710#9 -569836710#8 -569836710#7 -1049309001 -569836708#1 1049316381#0 1049316381#1 -724848601#6 1049316383#1 -724848592#3 -724848592#2 724848591#0 724848590#0 724848590#1 234938035#14 1095096687 1049316388#0 1049316388#1 724848586#1 724848584#1 -1049316392 -724848583#3 -724848583#2 -724848583#1 -724848583#0 -390947525#2 -390947525#1 -390947525#0 390947581#1"/>
    </vehicle>
    <vehicle id="12" depart="12.00">
        <route edges="-724848578#0 -1094670910#2 -1094670910#1 -1094670910#0 -569836717#4 -569836717#3 -569836717#2 -569836717#1 -569836717#0 234938035#10 -571914092 571914094 571914096#2 -1049316398 724848584#4 -390947581#2 -390947581#1 390947525#0 390947525#1 390947525#2 390947525#3 390947525#4"/>
    </vehicle>
    <vehicle id="13" depart="13.00">
        <route edges="-724848578#0 -1094670910#2 -1094670910#1 -1094670910#0 -569836717#4 -569836717#3 -569836717#2 -569836717#1 -569836717#0 234938035#10 -571914092 571914094 571914096#2 -1049316398 724848584#4 -390947581#2 -390947581#1 390947525#0 390947525#1 390947525#2 390947525#3"/>
    </vehicle>
    <vehicle id="14" depart="14.00">
        <route edges="-724848578#0 -1094670910#2 -1094670910#1 -1094670910#0 -569836717#4 -569836717#3 -569836717#2 -569836717#1 -569836717#0 234938035#10 -571914092 571914094 571914096#2 -1049316398 724848584#4 -390947581#2 -390947581#1 390947525#0 390947525#1"/>
    </vehicle>
    <vehicle id="15" depart="15.00">
        <route edges="-724848578#0 -1094670910#2 -1094670910#1 -1094670910#0 -569836717#4 -569836717#3 -569836717#2 -569836717#1 -569836717#0 234938035#10 -571914092 571914094 571914096#2 -1049316398 724848584#4 -390947581#2 -390947581#1 390947525#0"/>
    </vehicle>
    <vehicle id="16" depart="16.00">
        <route edges="-724848578#0 -1094670910#2 -1094670910#1 -1094670910#0 -569836717#4 -569836717#3 -569836717#2 -569836717#1 -569836717#0 234938035#10 -571914092 571914094 571914096#2 -1049316398 724848584#4 -390947581#2 -390947581#1"/>
    </vehicle>
    <vehicle id="17" depart="17.00">
        <route edges="-724848578#0 -1094670910#2 -1094670910#1 -1094670910#0 -569836717#4 -569836717#3 -569836717#2 -569836717#1 -569836717#0 234938035#10 -571914092 571914094 571914096#2 -1049316398 724848584#4 -390947581#2"/>
    </vehicle>
    <vehicle id="18" depart="18.00">
        <route edges="724848580#0 724848580#1 569836710#4 569836710#5 -569836717#4 -569836714#8 -724848600 724848601#1 724848601#2 724848597#0 724848596#0 -1105189944 1094674310 234938035#8 571914097#0 -570838812#7 571914093 -571914096#4 1049316399 -390947581#3 -390947581#2 -390947581#1 390947525#0 390947525#1 390947525#2 390947525#3 390947525#4"/>
    </vehicle>
    <vehicle id="19" depart="19.00">
        <route edges="724848580#0 724848580#1 569836710#4 569836710#5 -569836717#4 -569836714#8 -724848600 724848601#1 724848601#2 724848597#0 724848596#0 -1105189944 1094674310 234938035#8 571914097#0 -570838812#7 571914093 -571914096#4 1049316399 -390947581#3 -390947581#2 -390947581#1 390947525#0 390947525#1 390947525#2 390947525#3"/>
    </vehicle>
    <vehicle id="20" depart="20.00">
        <route edges="724848580#0 724848580#1 569836710#4 569836710#5 -569836717#4 -569836714#8 -724848600 724848601#1 724848601#2 724848597#0 724848596#0 -1105189944 1094674310 234938035#8 571914097#0 -570838812#7 571914093 -571914096#4 1049316399 -390947581#3 -390947581#2 -390947581#1 390947525#0 390947525#1 390947525#2"/>
    </vehicle>
    <vehicle id="21" depart="21.00">
        <route edges="724848580#0 724848580#1 569836710#4 569836710#5 -569836717#4 -569836714#8 -724848600 724848601#1 724848601#2 724848597#0 724848596#0 -1105189944 1094674310 234938035#8 571914097#0 -570838812#7 571914093 -571914096#4 1049316399 -390947581#3 -390947581#2 -390947581#1 390947525#0"/>
    </vehicle>
    <vehicle id="22" depart="22.00">
        <route edges="724848580#0 724848580#1 569836710#4 569836710#5 -569836717#4 -569836714#8 -724848600 724848601#1 724848601#2 724848597#0 724848596#0 -1105189944 1094674310 234938035#8 571914097#0 -570838812#7 571914093 -571914096#4 1049316399 -390947581#3 -390947581#2 -390947581#1"/>
    </vehicle>
    <vehicle id="23" depart="23.00">
        <route edges="724848580#0 724848580#1 569836710#4 569836710#5 -569836717#4 -569836714#8 -724848600 724848601#1 724848601#2 724848597#0 724848596#0 -1105189944 1094674310 234938035#8 571914097#0 -570838812#7 571914093 -571914096#4 1049316399 -390947581#3 -390947581#2"/>
    </vehicle>
    <vehicle id="24" depart="24.00">
        <route edges="-1049316380 -724848581 1094670910#6 -569836710#2 -569836710#1 -569836710#0 -569836714#6 -569836714#5 -569836714#4 -569836714#3 -569836714#2 -569836714#1 -569836714#0 -234938035#5 -390947581#11 -390947581#10 -390947581#9 -390947581#8 -390947581#7 -390947581#6 -390947581#5 -390947581#4 -390947581#3 -390947581#2 -390947581#1 390947525#0 390947525#1 390947525#2 390947525#3 390947525#4"/>
    </vehicle>
    <vehicle id="25" depart="25.00">
        <route edges="-1049316380 -724848581 1094670910#6 -569836710#2 -569836710#1 -569836710#0 -569836714#6 -569836714#5 -569836714#4 -569836714#3 -569836714#2 -569836714#1 -569836714#0 -234938035#5 -390947581#11 -390947581#10 -390947581#9 -390947581#8 -390947581#7 -390947581#6 -390947581#5 -390947581#4 -390947581#3 -390947581#2 -390947581#1 390947525#0 390947525#1 390947525#2 390947525#3"/>
    </vehicle>
    <vehicle id="26" depart="26.00">
        <route edges="-1049316380 -724848581 1094670910#6 -569836710#2 -569836710#1 -569836710#0 -569836714#6 -569836714#5 -569836714#4 -569836714#3 -569836714#2 -569836714#1 -569836714#0 -234938035#5 -390947581#11 -390947581#10 -390947581#9 -390947581#8 -390947581#7 -390947581#6 -390947581#5 -390947581#4 -390947581#3 -390947581#2 -390947581#1 390947525#0 390947525#1 390947525#2"/>
    </vehicle>
    <vehicle id="27" depart="27.00">
        <route edges="-1049316380 -724848581 1094670910#6 -569836710#2 -569836710#1 -569836710#0 -569836714#6 -569836714#5 -569836714#4 -569836714#3 -569836714#2 -569836714#1 -569836714#0 -234938035#5 -390947581#11 -390947581#10 -390947581#9 -390947581#8 -390947581#7 -390947581#6 -390947581#5 -390947581#4 -390947581#3 -390947581#2 -390947581#1 390947525#0"/>
    </vehicle>
    <vehicle id="28" depart="28.00">
        <route edges="-1049316380 -724848581 1094670910#6 -569836710#2 -569836710#1 -569836710#0 -569836714#6 -569836714#5 -569836714#4 -569836714#3 -569836714#2 -569836714#1 -569836714#0 -234938035#5 -390947581#11 -390947581#10 -390947581#9 -390947581#8 -390947581#7 -390947581#6 -390947581#5 -390947581#4 -390947581#3 -390947581#2 -390947581#1"/>
    </vehicle>
    <vehicle id="29" depart="29.00">
        <route edges="-1049316380 -724848581 1094670910#6 -569836710#2 -569836710#1 -569836710#0 -569836714#6 -569836714#5 -569836714#4 -569836714#3 -569836714#2 -569836714#1 -569836714#0 -234938035#5 -390947581#11 -390947581#10 -390947581#9 -390947581#8 -390947581#7 -390947581#6 -390947581#5 -390947581#4 -390947581#3 -390947581#2"/>
    </vehicle>
    <vehicle id="30" depart="30.00">
        <route edges="1094487781#1 -1049316380 -724848581 1094670910#6 -569836710#2 -569836710#1 -569836710#0 -569836714#6 -569836714#5 -569836714#4 -569836714#3 -569836714#2 -569836714#1 -569836714#0 -234938035#5 -390947581#11 -390947581#10 -390947581#9 -390947581#8 -390947581#7 -390947581#6 -390947581#5 -390947581#4 -390947581#3 -390947581#2 -390947581#1 390947525#0 390947525#1 390947525#2 390947525#3 390947525#4"/>
    </vehicle>
    <vehicle id="31" depart="31.00">
        <route edges="1094487781#1 -1049316380 -724848581 1094670910#6 -569836710#2 -569836710#1 -569836710#0 -569836714#6 -569836714#5 -569836714#4 -569836714#3 -569836714#2 -569836714#1 -569836714#0 -234938035#5 -390947581#11 -390947581#10 -390947581#9 -390947581#8 -390947581#7 -390947581#6 -390947581#5 -390947581#4 -390947581#3 -390947581#2 -390947581#1 390947525#0 390947525#1 390947525#2 390947525#3"/>
    </vehicle>
    <vehicle id="32" depart="32.00">
        <route edges="1094487781#1 -1049316380 -724848581 1094670910#6 -569836710#2 -569836710#1 -569836710#0 -569836714#6 -569836714#5 -569836714#4 -569836714#3 -569836714#2 -569836714#1 -569836714#0 -234938035#5 -390947581#11 -390947581#10 -390947581#9 -390947581#8 -390947581#7 -390947581#6 -390947581#5 -390947581#4 -390947581#3 -390947581#2 -390947581#1 390947525#0 390947525#1 390947525#2"/>
    </vehicle>
    <vehicle id="33" depart="33.00">
        <route edges="1094487781#1 -1049316380 -724848581 1094670910#6 -569836710#2 -569836710#1 -569836710#0 -569836714#6 -569836714#5 -569836714#4 -569836714#3 -569836714#2 -569836714#1 -569836714#0 -234938035#5 -390947581#11 -390947581#10 -390947581#9 -390947581#8 -390947581#7 -390947581#6 -390947581#5 -390947581#4 -390947581#3 -390947581#2 -390947581#1 390947525#0"/>
    </vehicle>
    <vehicle id="34" depart="34.00">
        <route edges="1094487781#1 -1049316380 -724848581 1094670910#6 -569836710#2 -569836710#1 -569836710#0 -569836714#6 -569836714#5 -569836714#4 -569836714#3 -569836714#2 -569836714#1 -569836714#0 -234938035#5 -390947581#11 -390947581#10 -390947581#9 -390947581#8 -390947581#7 -390947581#6 -390947581#5 -390947581#4 -390947581#3 -390947581#2 -390947581#1"/>
    </vehicle>
    <vehicle id="35" depart="35.00">
        <route edges="1094487781#1 -1049316380 -724848581 1094670910#6 -569836710#2 -569836710#1 -569836710#0 -569836714#6 -569836714#5 -569836714#4 -569836714#3 -569836714#2 -569836714#1 -569836714#0 -234938035#5 -390947581#11 -390947581#10 -390947581#9 -390947581#8 -390947581#7 -390947581#6 -390947581#5 -390947581#4 -390947581#3 -390947581#2"/>
    </vehicle>
    </routes>
