<?xml version="1.0" encoding="UTF-8"?>

<!-- generated on 2024-03-13 11:42:59.507033 by randomTrips.py v1_18_0+0000-03ecfdea036
<configuration>
    <net-file value="test.net.xml"/>
    <route-file value="map.rou.xml"/>
    <length value="True"/>
    <validate value="True"/>
    <end value="1000.0"/>
</configuration>
-->

<!-- generated on 2024-03-13 11:42:59 by Eclipse SUMO duarouter Version 1.18.0
<configuration xmlns:xsi="http://www.w3.org/2001/XMLSchema-instance" xsi:noNamespaceSchemaLocation="http://sumo.dlr.de/xsd/duarouterConfiguration.xsd">

    <input>
        <net-file value="test.net.xml"/>
        <route-files value="trips.trips.xml"/>
    </input>

    <output>
        <output-file value="map.rou.xml"/>
        <alternatives-output value="NUL"/>
    </output>

    <time>
        <begin value="0"/>
        <end value="1000.0"/>
    </time>

    <report>
        <no-warnings value="true"/>
        <ignore-errors value="true"/>
        <no-step-log value="true"/>
    </report>

</configuration>
-->

<routes xmlns:xsi="http://www.w3.org/2001/XMLSchema-instance" xsi:noNamespaceSchemaLocation="http://sumo.dlr.de/xsd/routes_file.xsd">
    <flow id="0" begin="0" end= "50000" period="20">
        <route edges="-723696844#9 -723696844#8 -723696844#7 -723696844#6 -723696844#5 -723696844#4 -723696844#3 -723696844#2 -723696844#1 570838812#0 570838812#1 1049316388#0 -724848588#1 724848585#0 724848585#1 724848585#2"/>
    </flow>
    <flow id="1" begin="0" end= "50000" period="50000">
        <route edges="-723696844#9 -723696844#8 -723696844#7 -723696844#6 -723696844#5 -723696844#4 -723696844#3 -723696844#2 -723696844#1 570838812#0 570838812#1 1049316388#0 -724848588#1 724848585#0 724848585#1 724848585#2 -390947525#4"/>
    </flow>
    <flow id="2" begin="0" end= "50000" period="50000">
        <route edges="-723696844#9 -723696844#8 -723696844#7 -723696844#6 -723696844#5 -723696844#4 -723696844#3 -723696844#2 -723696844#1 570838812#0 570838812#1 1049316388#0 -724848588#1 724848585#0 724848585#1 724848585#2 -390947525#4 -390947525#3"/>
    </flow>
    <flow id="3" begin="0" end= "50000" period="50000">
        <route edges="-723696844#9 -723696844#8 -723696844#7 -723696844#6 -723696844#5 -723696844#4 -723696844#3 -723696844#2 -723696844#1 570838812#0 570838812#1 1049316388#0 -724848588#1 724848585#0 724848585#1 724848585#2 -390947525#4 -390947525#3 -390947525#2 -390947525#1"/>
    </flow>
    <flow id="4" begin="0" end= "50000" period="50000">
        <route edges="-723696844#9 -723696844#8 -723696844#7 -723696844#6 -723696844#5 -723696844#4 -723696844#3 -723696844#2 -723696844#1 570838812#0 570838812#1 1049316388#0 -724848588#1 724848585#0 724848585#1 724848585#2 -390947525#4 -390947525#3 -390947525#2 -390947525#1 -390947525#0"/>
    </flow>
    <flow id="5" begin="0" end= "50000" period="50000">
        <route edges="-723696844#9 -723696844#8 -723696844#7 -723696844#6 -723696844#5 -723696844#4 -723696844#3 -723696844#2 -723696844#1 570838812#0 570838812#1 1049316388#0 -724848588#1 724848585#0 724848585#1 724848585#2 -390947525#4 -390947525#3 -390947525#2 -390947525#1 -390947525#0 390947581#1"/>
    </flow>
    <flow id="6" begin="0" end= "50000" period="13.98">
        <route edges="1049308998 -569836710#10 -569836710#9 -569836710#8 -569836710#7 -1049309001 -569836708#1 1049316381#0 1049316381#1 -724848601#6 1049316383#1 -724848592#3 -724848592#2 724848591#0 724848590#0 724848590#1 234938035#14 1095096687 1049316388#0 1049316388#1 724848586#1 724848584#1 -1049316392 -724848583#3 -724848583#2 -724848583#1 -724848583#0 390947525#3 390947525#4"/>
    </flow>
    <flow id="7" begin="0" end= "50000" period="35.09">
        <route edges="1049308998 -569836710#10 -569836710#9 -569836710#8 -569836710#7 -1049309001 -569836708#1 1049316381#0 1049316381#1 -724848601#6 1049316383#1 -724848592#3 -724848592#2 724848591#0 724848590#0 724848590#1 234938035#14 1095096687 1049316388#0 1049316388#1 724848586#1 724848584#1 -1049316392 -724848583#3 -724848583#2 -724848583#1 -724848583#0 390947525#3"/>
    </flow>
    <flow id="8" begin="0" end= "50000" period="50000">
        <route edges="1049308998 -569836710#10 -569836710#9 -569836710#8 -569836710#7 -1049309001 -569836708#1 1049316381#0 1049316381#1 -724848601#6 1049316383#1 -724848592#3 -724848592#2 724848591#0 724848590#0 724848590#1 234938035#14 1095096687 1049316388#0 1049316388#1 724848586#1 724848584#1 -1049316392 -724848583#3 -724848583#2 -724848583#1 -724848583#0"/>
    </flow>
    <flow id="9" begin="0" end= "50000" period="50000">
        <route edges="1049308998 -569836710#10 -569836710#9 -569836710#8 -569836710#7 -1049309001 -569836708#1 1049316381#0 1049316381#1 -724848601#6 1049316383#1 -724848592#3 -724848592#2 724848591#0 724848590#0 724848590#1 234938035#14 1095096687 1049316388#0 1049316388#1 724848586#1 724848584#1 -1049316392 -724848583#3 -724848583#2 -724848583#1 -724848583#0 -390947525#2 -390947525#1"/>
    </flow>
    <flow id="10" begin="0" end= "50000" period="50000">
        <route edges="1049308998 -569836710#10 -569836710#9 -569836710#8 -569836710#7 -1049309001 -569836708#1 1049316381#0 1049316381#1 -724848601#6 1049316383#1 -724848592#3 -724848592#2 724848591#0 724848590#0 724848590#1 234938035#14 1095096687 1049316388#0 1049316388#1 724848586#1 724848584#1 -1049316392 -724848583#3 -724848583#2 -724848583#1 -724848583#0 -390947525#2 -390947525#1 -390947525#0"/>
    </flow>
    <flow id="11" begin="0" end= "50000" period="50000">
        <route edges="1049308998 -569836710#10 -569836710#9 -569836710#8 -569836710#7 -1049309001 -569836708#1 1049316381#0 1049316381#1 -724848601#6 1049316383#1 -724848592#3 -724848592#2 724848591#0 724848590#0 724848590#1 234938035#14 1095096687 1049316388#0 1049316388#1 724848586#1 724848584#1 -1049316392 -724848583#3 -724848583#2 -724848583#1 -724848583#0 -390947525#2 -390947525#1 -390947525#0 390947581#1"/>
    </flow>
    <flow id="12" begin="0" end= "50000" period="50000">
        <route edges="-724848578#0 -1094670910#2 -1094670910#1 -1094670910#0 -569836717#4 -569836717#3 -569836717#2 -569836717#1 -569836717#0 234938035#10 -571914092 571914094 571914096#2 -1049316398 724848584#4 -390947581#2 -390947581#1 390947525#0 390947525#1 390947525#2 390947525#3 390947525#4"/>
    </flow>
    <flow id="13" begin="0" end= "50000" period="24.09">
        <route edges="-724848578#0 -1094670910#2 -1094670910#1 -1094670910#0 -569836717#4 -569836717#3 -569836717#2 -569836717#1 -569836717#0 234938035#10 -571914092 571914094 571914096#2 -1049316398 724848584#4 -390947581#2 -390947581#1 390947525#0 390947525#1 390947525#2 390947525#3"/>
    </flow>
    <flow id="14" begin="0" end= "50000" period="10.15">
        <route edges="-724848578#0 -1094670910#2 -1094670910#1 -1094670910#0 -569836717#4 -569836717#3 -569836717#2 -569836717#1 -569836717#0 234938035#10 -571914092 571914094 571914096#2 -1049316398 724848584#4 -390947581#2 -390947581#1 390947525#0 390947525#1"/>
    </flow>
    <flow id="15" begin="0" end= "50000" period="50000">
        <route edges="-724848578#0 -1094670910#2 -1094670910#1 -1094670910#0 -569836717#4 -569836717#3 -569836717#2 -569836717#1 -569836717#0 234938035#10 -571914092 571914094 571914096#2 -1049316398 724848584#4 -390947581#2 -390947581#1 390947525#0"/>
    </flow>
    <flow id="16" begin="0" end= "50000" period="50000">
        <route edges="-724848578#0 -1094670910#2 -1094670910#1 -1094670910#0 -569836717#4 -569836717#3 -569836717#2 -569836717#1 -569836717#0 234938035#10 -571914092 571914094 571914096#2 -1049316398 724848584#4 -390947581#2 -390947581#1"/>
    </flow>
    <flow id="17" begin="0" end= "50000" period="50000">
        <route edges="-724848578#0 -1094670910#2 -1094670910#1 -1094670910#0 -569836717#4 -569836717#3 -569836717#2 -569836717#1 -569836717#0 234938035#10 -571914092 571914094 571914096#2 -1049316398 724848584#4 -390947581#2"/>
    </flow>
    <flow id="18" begin="0" end= "50000" period="50000">
        <route edges="724848580#0 724848580#1 569836710#4 569836710#5 -569836717#4 -569836714#8 -724848600 724848601#1 724848601#2 724848597#0 724848596#0 -1105189944 1094674310 234938035#8 571914097#0 -570838812#7 571914093 -571914096#4 1049316399 -390947581#3 -390947581#2 -390947581#1 390947525#0 390947525#1 390947525#2 390947525#3 390947525#4"/>
    </flow>
    <flow id="19" begin="0" end= "50000" period="50000">
        <route edges="724848580#0 724848580#1 569836710#4 569836710#5 -569836717#4 -569836714#8 -724848600 724848601#1 724848601#2 724848597#0 724848596#0 -1105189944 1094674310 234938035#8 571914097#0 -570838812#7 571914093 -571914096#4 1049316399 -390947581#3 -390947581#2 -390947581#1 390947525#0 390947525#1 390947525#2 390947525#3"/>
    </flow>
    <flow id="20" begin="0" end= "50000" period="50000">
        <route edges="724848580#0 724848580#1 569836710#4 569836710#5 -569836717#4 -569836714#8 -724848600 724848601#1 724848601#2 724848597#0 724848596#0 -1105189944 1094674310 234938035#8 571914097#0 -570838812#7 571914093 -571914096#4 1049316399 -390947581#3 -390947581#2 -390947581#1 390947525#0 390947525#1 390947525#2"/>
    </flow>
    <flow id="21" begin="0" end= "50000" period="50000">
        <route edges="724848580#0 724848580#1 569836710#4 569836710#5 -569836717#4 -569836714#8 -724848600 724848601#1 724848601#2 724848597#0 724848596#0 -1105189944 1094674310 234938035#8 571914097#0 -570838812#7 571914093 -571914096#4 1049316399 -390947581#3 -390947581#2 -390947581#1 390947525#0"/>
    </flow>
    <flow id="22" begin="0" end= "50000" period="5.88">
        <route edges="724848580#0 724848580#1 569836710#4 569836710#5 -569836717#4 -569836714#8 -724848600 724848601#1 724848601#2 724848597#0 724848596#0 -1105189944 1094674310 234938035#8 571914097#0 -570838812#7 571914093 -571914096#4 1049316399 -390947581#3 -390947581#2 -390947581#1"/>
    </flow>
    <flow id="23" begin="0" end= "50000" period="50000">
        <route edges="724848580#0 724848580#1 569836710#4 569836710#5 -569836717#4 -569836714#8 -724848600 724848601#1 724848601#2 724848597#0 724848596#0 -1105189944 1094674310 234938035#8 571914097#0 -570838812#7 571914093 -571914096#4 1049316399 -390947581#3 -390947581#2"/>
    </flow>
    <flow id="24" begin="0" end= "50000" period="50000">
        <route edges="-1049316380 -724848581 1094670910#6 -569836710#2 -569836710#1 -569836710#0 -569836714#6 -569836714#5 -569836714#4 -569836714#3 -569836714#2 -569836714#1 -569836714#0 -234938035#5 -390947581#11 -390947581#10 -390947581#9 -390947581#8 -390947581#7 -390947581#6 -390947581#5 -390947581#4 -390947581#3 -390947581#2 -390947581#1 390947525#0 390947525#1 390947525#2 390947525#3 390947525#4"/>
    </flow>
    <flow id="25" begin="0" end= "50000" period="50000">
        <route edges="-1049316380 -724848581 1094670910#6 -569836710#2 -569836710#1 -569836710#0 -569836714#6 -569836714#5 -569836714#4 -569836714#3 -569836714#2 -569836714#1 -569836714#0 -234938035#5 -390947581#11 -390947581#10 -390947581#9 -390947581#8 -390947581#7 -390947581#6 -390947581#5 -390947581#4 -390947581#3 -390947581#2 -390947581#1 390947525#0 390947525#1 390947525#2 390947525#3"/>
    </flow>
    <flow id="26" begin="0" end= "50000" period="31.74">
        <route edges="-1049316380 -724848581 1094670910#6 -569836710#2 -569836710#1 -569836710#0 -569836714#6 -569836714#5 -569836714#4 -569836714#3 -569836714#2 -569836714#1 -569836714#0 -234938035#5 -390947581#11 -390947581#10 -390947581#9 -390947581#8 -390947581#7 -390947581#6 -390947581#5 -390947581#4 -390947581#3 -390947581#2 -390947581#1 390947525#0 390947525#1 390947525#2"/>
    </flow>
    <flow id="27" begin="0" end= "50000" period="50000">
        <route edges="-1049316380 -724848581 1094670910#6 -569836710#2 -569836710#1 -569836710#0 -569836714#6 -569836714#5 -569836714#4 -569836714#3 -569836714#2 -569836714#1 -569836714#0 -234938035#5 -390947581#11 -390947581#10 -390947581#9 -390947581#8 -390947581#7 -390947581#6 -390947581#5 -390947581#4 -390947581#3 -390947581#2 -390947581#1 390947525#0"/>
    </flow>
    <flow id="28" begin="0" end= "50000" period="200">
        <route edges="-1049316380 -724848581 1094670910#6 -569836710#2 -569836710#1 -569836710#0 -569836714#6 -569836714#5 -569836714#4 -569836714#3 -569836714#2 -569836714#1 -569836714#0 -234938035#5 -390947581#11 -390947581#10 -390947581#9 -390947581#8 -390947581#7 -390947581#6 -390947581#5 -390947581#4 -390947581#3 -390947581#2 -390947581#1"/>
    </flow>
    <flow id="29" begin="0" end= "50000" period="7.22">
        <route edges="-1049316380 -724848581 1094670910#6 -569836710#2 -569836710#1 -569836710#0 -569836714#6 -569836714#5 -569836714#4 -569836714#3 -569836714#2 -569836714#1 -569836714#0 -234938035#5 -390947581#11 -390947581#10 -390947581#9 -390947581#8 -390947581#7 -390947581#6 -390947581#5 -390947581#4 -390947581#3 -390947581#2"/>
    </flow>
    <flow id="30" begin="0" end= "50000" period="50000">
        <route edges="1094487781#1 -1049316380 -724848581 1094670910#6 -569836710#2 -569836710#1 -569836710#0 -569836714#6 -569836714#5 -569836714#4 -569836714#3 -569836714#2 -569836714#1 -569836714#0 -234938035#5 -390947581#11 -390947581#10 -390947581#9 -390947581#8 -390947581#7 -390947581#6 -390947581#5 -390947581#4 -390947581#3 -390947581#2 -390947581#1 390947525#0 390947525#1 390947525#2 390947525#3 390947525#4"/>
    </flow>
    <flow id="31" begin="0" end= "50000" period="50000">
        <route edges="1094487781#1 -1049316380 -724848581 1094670910#6 -569836710#2 -569836710#1 -569836710#0 -569836714#6 -569836714#5 -569836714#4 -569836714#3 -569836714#2 -569836714#1 -569836714#0 -234938035#5 -390947581#11 -390947581#10 -390947581#9 -390947581#8 -390947581#7 -390947581#6 -390947581#5 -390947581#4 -390947581#3 -390947581#2 -390947581#1 390947525#0 390947525#1 390947525#2 390947525#3"/>
    </flow>
    <flow id="32" begin="0" end= "50000" period="50000">
        <route edges="1094487781#1 -1049316380 -724848581 1094670910#6 -569836710#2 -569836710#1 -569836710#0 -569836714#6 -569836714#5 -569836714#4 -569836714#3 -569836714#2 -569836714#1 -569836714#0 -234938035#5 -390947581#11 -390947581#10 -390947581#9 -390947581#8 -390947581#7 -390947581#6 -390947581#5 -390947581#4 -390947581#3 -390947581#2 -390947581#1 390947525#0 390947525#1 390947525#2"/>
    </flow>
    <flow id="33" begin="0" end= "50000" period="9">
        <route edges="1094487781#1 -1049316380 -724848581 1094670910#6 -569836710#2 -569836710#1 -569836710#0 -569836714#6 -569836714#5 -569836714#4 -569836714#3 -569836714#2 -569836714#1 -569836714#0 -234938035#5 -390947581#11 -390947581#10 -390947581#9 -390947581#8 -390947581#7 -390947581#6 -390947581#5 -390947581#4 -390947581#3 -390947581#2 -390947581#1 390947525#0"/>
    </flow>
    <flow id="34" begin="0" end= "50000" period="50000">
        <route edges="1094487781#1 -1049316380 -724848581 1094670910#6 -569836710#2 -569836710#1 -569836710#0 -569836714#6 -569836714#5 -569836714#4 -569836714#3 -569836714#2 -569836714#1 -569836714#0 -234938035#5 -390947581#11 -390947581#10 -390947581#9 -390947581#8 -390947581#7 -390947581#6 -390947581#5 -390947581#4 -390947581#3 -390947581#2 -390947581#1"/>
    </flow>
    <flow id="35" begin="0" end= "50000" period="71.43">
        <route edges="1094487781#1 -1049316380 -724848581 1094670910#6 -569836710#2 -569836710#1 -569836710#0 -569836714#6 -569836714#5 -569836714#4 -569836714#3 -569836714#2 -569836714#1 -569836714#0 -234938035#5 -390947581#11 -390947581#10 -390947581#9 -390947581#8 -390947581#7 -390947581#6 -390947581#5 -390947581#4 -390947581#3 -390947581#2"/>
    </flow>
    </routes>
