<?xml version="1.0" encoding="UTF-8"?>

<!-- generated on 2024-03-14 12:58:42 by Eclipse SUMO netedit Version 1.18.0
<configuration xmlns:xsi="http://www.w3.org/2001/XMLSchema-instance" xsi:noNamespaceSchemaLocation="http://sumo.dlr.de/xsd/neteditConfiguration.xsd">

    <input>
        <sumo-net-file value="C:\Users\Ayush\Downloads\sumo-rl-main - 2\sumo-rl-main\nets\Ddn\test.net.xml"/>
    </input>

    <output>
        <output-file value="C:\Users\Ayush\Downloads\sumo-rl-main - 2\sumo-rl-main\nets\Ddn\test.net.xml"/>
    </output>

    <processing>
        <geometry.min-radius.fix.railways value="false"/>
        <geometry.max-grade.fix value="false"/>
        <offset.disable-normalization value="true"/>
        <lefthand value="0"/>
    </processing>

    <junctions>
        <no-turnarounds value="true"/>
        <junctions.corner-detail value="5"/>
        <junctions.limit-turn-speed value="5.50"/>
        <rectangular-lane-cut value="0"/>
    </junctions>

    <pedestrian>
        <walkingareas value="0"/>
    </pedestrian>

</configuration>
-->

<net version="1.16" junctionCornerDetail="5" limitTurnSpeed="5.50" xmlns:xsi="http://www.w3.org/2001/XMLSchema-instance" xsi:noNamespaceSchemaLocation="http://sumo.dlr.de/xsd/net_file.xsd">

    <location netOffset="-780537.55,-3355551.58" convBoundary="0.00,0.00,5041.51,4246.39" origBoundary="77.917897,30.298594,77.970108,30.336868" projParameter="+proj=utm +zone=43 +ellps=WGS84 +datum=WGS84 +units=m +no_defs"/>

    <type id="highway.residential" priority="3" numLanes="1" speed="13.89" disallow="tram rail_urban rail rail_electric rail_fast ship" oneway="0"/>
    <type id="highway.service" priority="1" numLanes="1" speed="5.56" allow="pedestrian delivery bicycle" oneway="0"/>
    <type id="highway.tertiary" priority="10" numLanes="1" speed="22.22" disallow="tram rail_urban rail rail_electric rail_fast ship" oneway="0"/>

    <edge id=":10024255230_0" function="internal">
        <lane id=":10024255230_0_0" index="0" disallow="tram rail_urban rail rail_electric rail_fast ship" speed="3.65" length="4.67" shape="3651.06,3518.32 3651.74,3517.05 3652.50,3516.58 3653.34,3516.90 3654.24,3518.02"/>
    </edge>
    <edge id=":10024255237_0" function="internal">
        <lane id=":10024255237_0_0" index="0" allow="pedestrian delivery bicycle" speed="5.01" length="5.03" shape="3672.28,3679.80 3671.92,3678.46 3671.21,3677.57 3670.17,3677.13 3668.79,3677.14"/>
    </edge>
    <edge id=":10024255237_1" function="internal">
        <lane id=":10024255237_1_0" index="0" disallow="tram rail_urban rail rail_electric rail_fast ship" speed="13.89" length="9.40" shape="3672.28,3679.80 3671.12,3670.46"/>
    </edge>
    <edge id=":10024255237_2" function="internal">
        <lane id=":10024255237_2_0" index="0" disallow="tram rail_urban rail rail_electric rail_fast ship" speed="13.89" length="9.41" shape="3674.30,3670.07 3675.45,3679.40"/>
    </edge>
    <edge id=":10024255237_3" function="internal">
        <lane id=":10024255237_3_0" index="0" allow="pedestrian delivery bicycle" speed="6.93" length="3.22" shape="3674.30,3670.07 3674.24,3672.81 3674.04,3673.24"/>
    </edge>
    <edge id=":10024255237_7" function="internal">
        <lane id=":10024255237_7_0" index="0" allow="pedestrian delivery bicycle" speed="6.93" length="6.95" shape="3674.04,3673.24 3673.30,3674.90 3671.48,3676.35 3668.79,3677.14"/>
    </edge>
    <edge id=":10024255237_4" function="internal">
        <lane id=":10024255237_4_0" index="0" allow="pedestrian delivery bicycle" speed="5.13" length="5.10" shape="3668.31,3673.98 3669.68,3673.58 3670.61,3672.86 3671.09,3671.82 3671.12,3670.46"/>
    </edge>
    <edge id=":10024255237_5" function="internal">
        <lane id=":10024255237_5_0" index="0" allow="pedestrian delivery bicycle" speed="6.84" length="10.29" shape="3668.31,3673.98 3671.14,3673.96 3673.27,3674.86 3674.71,3676.67 3675.45,3679.40"/>
    </edge>
    <edge id=":10024255237_6" function="internal">
        <lane id=":10024255237_6_0" index="0" allow="pedestrian delivery bicycle" speed="3.65" length="4.67" shape="3668.31,3673.98 3669.62,3674.59 3670.13,3675.32 3669.85,3676.17 3668.79,3677.14"/>
    </edge>
    <edge id=":10024255243_0" function="internal">
        <lane id=":10024255243_0_0" index="0" allow="pedestrian delivery bicycle" speed="3.65" length="4.67" shape="3624.13,3647.52 3624.78,3646.23 3625.52,3645.73 3626.37,3646.03 3627.31,3647.12"/>
    </edge>
    <edge id=":10024255244_0" function="internal">
        <lane id=":10024255244_0_0" index="0" disallow="tram rail_urban rail rail_electric rail_fast ship" speed="3.65" length="4.67" shape="3640.89,3593.64 3640.25,3594.93 3639.50,3595.43 3638.66,3595.13 3637.71,3594.04"/>
    </edge>
    <edge id=":10024255246_0" function="internal">
        <lane id=":10024255246_0_0" index="0" disallow="tram rail_urban rail rail_electric rail_fast ship" speed="3.65" length="4.67" shape="3627.98,3517.28 3628.63,3515.99 3629.37,3515.49 3630.22,3515.79 3631.16,3516.88"/>
    </edge>
    <edge id=":10024255247_0" function="internal">
        <lane id=":10024255247_0_0" index="0" disallow="tram rail_urban rail rail_electric rail_fast ship" speed="3.65" length="4.67" shape="3702.41,3603.12 3701.71,3604.38 3700.95,3604.84 3700.12,3604.51 3699.23,3603.38"/>
    </edge>
    <edge id=":10024255248_0" function="internal">
        <lane id=":10024255248_0_0" index="0" disallow="tram rail_urban rail rail_electric rail_fast ship" speed="3.65" length="4.67" shape="3690.63,3521.76 3691.27,3520.46 3692.01,3519.96 3692.86,3520.26 3693.81,3521.34"/>
    </edge>
    <edge id=":10024257856_0" function="internal">
        <lane id=":10024257856_0_0" index="0" allow="pedestrian delivery bicycle" speed="3.65" length="4.67" shape="3543.32,3520.79 3543.84,3519.45 3544.54,3518.89 3545.41,3519.11 3546.44,3520.11"/>
    </edge>
    <edge id=":10024257870_0" function="internal">
        <lane id=":10024257870_0_0" index="0" allow="pedestrian delivery bicycle" speed="3.65" length="4.67" shape="3576.70,3697.09 3575.33,3696.64 3574.73,3695.98 3574.90,3695.10 3575.84,3694.01"/>
    </edge>
    <edge id=":10024277112_0" function="internal">
        <lane id=":10024277112_0_0" index="0" disallow="tram rail_urban rail rail_electric rail_fast ship" speed="8.39" length="11.83" shape="3819.36,3732.08 3816.08,3732.78 3813.55,3734.14 3811.75,3736.17 3810.69,3738.86"/>
    </edge>
    <edge id=":10024277112_1" function="internal">
        <lane id=":10024277112_1_0" index="0" disallow="tram rail_urban rail rail_electric rail_fast ship" speed="8.52" length="3.90" shape="3819.36,3732.08 3815.46,3732.07"/>
    </edge>
    <edge id=":10024277112_2" function="internal">
        <lane id=":10024277112_2_0" index="0" disallow="tram rail_urban rail rail_electric rail_fast ship" speed="3.75" length="1.88" shape="3819.36,3732.08 3817.81,3731.94 3817.55,3731.76"/>
    </edge>
    <edge id=":10024277112_9" function="internal">
        <lane id=":10024277112_9_0" index="0" disallow="tram rail_urban rail rail_electric rail_fast ship" speed="8.52" length="11.03" shape="3815.46,3732.07 3814.75,3732.07 3811.24,3731.01 3808.83,3728.89 3807.51,3725.71"/>
    </edge>
    <edge id=":10024277112_10" function="internal">
        <lane id=":10024277112_10_0" index="0" disallow="tram rail_urban rail rail_electric rail_fast ship" speed="3.75" length="3.19" shape="3817.55,3731.76 3817.01,3731.38 3816.98,3730.42 3817.71,3729.03"/>
    </edge>
    <edge id=":10024277112_3" function="internal">
        <lane id=":10024277112_3_0" index="0" disallow="tram rail_urban rail rail_electric rail_fast ship" speed="6.79" length="9.13" shape="3810.61,3724.91 3811.42,3726.94 3812.88,3728.31 3814.97,3729.01 3817.71,3729.03"/>
    </edge>
    <edge id=":10024277112_4" function="internal">
        <lane id=":10024277112_4_0" index="0" disallow="tram rail_urban rail rail_electric rail_fast ship" speed="13.89" length="14.06" shape="3810.61,3724.91 3811.21,3728.47 3811.45,3731.89 3811.29,3735.31 3810.69,3738.86"/>
    </edge>
    <edge id=":10024277112_5" function="internal">
        <lane id=":10024277112_5_0" index="0" disallow="tram rail_urban rail rail_electric rail_fast ship" speed="3.65" length="4.68" shape="3810.61,3724.91 3810.14,3726.27 3809.46,3726.86 3808.58,3726.67 3807.51,3725.71"/>
    </edge>
    <edge id=":10024277112_6" function="internal">
        <lane id=":10024277112_6_0" index="0" disallow="tram rail_urban rail rail_electric rail_fast ship" speed="13.89" length="11.78" shape="3807.75,3737.36 3808.32,3734.17 3808.43,3731.54 3808.13,3728.91 3807.51,3725.71"/>
    </edge>
    <edge id=":10024277112_7" function="internal">
        <lane id=":10024277112_7_0" index="0" disallow="tram rail_urban rail rail_electric rail_fast ship" speed="9.07" length="13.97" shape="3807.75,3737.36 3809.01,3734.03 3811.09,3731.53 3813.99,3729.86 3817.71,3729.03"/>
    </edge>
    <edge id=":10024277112_8" function="internal">
        <lane id=":10024277112_8_0" index="0" disallow="tram rail_urban rail rail_electric rail_fast ship" speed="3.69" length="1.49" shape="3807.75,3737.36 3809.05,3736.63"/>
    </edge>
    <edge id=":10024277112_11" function="internal">
        <lane id=":10024277112_11_0" index="0" disallow="tram rail_urban rail rail_electric rail_fast ship" speed="3.69" length="3.33" shape="3809.05,3736.63 3809.97,3736.64 3810.52,3737.38 3810.69,3738.86"/>
    </edge>
    <edge id=":10026096637_0" function="internal">
        <lane id=":10026096637_0_0" index="0" disallow="tram rail_urban rail rail_electric rail_fast ship" speed="13.89" length="8.18" shape="3871.97,3728.24 3869.72,3727.50 3868.08,3727.41 3866.38,3727.68 3863.96,3728.00"/>
    </edge>
    <edge id=":10026096637_1" function="internal">
        <lane id=":10026096637_1_0" index="0" disallow="tram rail_urban rail rail_electric rail_fast ship" speed="8.28" length="1.40" shape="3871.97,3728.24 3871.19,3727.38 3871.11,3727.15"/>
    </edge>
    <edge id=":10026096637_2" function="internal">
        <lane id=":10026096637_2_0" index="0" disallow="tram rail_urban rail rail_electric rail_fast ship" speed="3.65" length="1.44" shape="3871.97,3728.24 3871.17,3727.04"/>
    </edge>
    <edge id=":10026096637_9" function="internal">
        <lane id=":10026096637_9_0" index="0" disallow="tram rail_urban rail rail_electric rail_fast ship" speed="8.28" length="8.49" shape="3871.11,3727.15 3870.55,3725.53 3870.05,3722.67 3869.68,3718.82"/>
    </edge>
    <edge id=":10026096637_10" function="internal">
        <lane id=":10026096637_10_0" index="0" disallow="tram rail_urban rail rail_electric rail_fast ship" speed="3.65" length="3.23" shape="3871.17,3727.04 3871.11,3726.14 3871.79,3725.56 3873.20,3725.28"/>
    </edge>
    <edge id=":10026096637_3" function="internal">
        <lane id=":10026096637_3_0" index="0" disallow="tram rail_urban rail rail_electric rail_fast ship" speed="6.72" length="6.28" shape="3872.91,3719.09 3872.85,3720.43 3872.73,3722.42 3872.78,3724.29 3873.20,3725.28"/>
    </edge>
    <edge id=":10026096637_4" function="internal">
        <lane id=":10026096637_4_0" index="0" disallow="tram rail_urban rail rail_electric rail_fast ship" speed="8.08" length="14.32" shape="3872.91,3719.09 3872.55,3722.69 3870.94,3725.38 3868.08,3727.15 3863.96,3728.00"/>
    </edge>
    <edge id=":10026096637_5" function="internal">
        <lane id=":10026096637_5_0" index="0" disallow="tram rail_urban rail rail_electric rail_fast ship" speed="3.66" length="4.73" shape="3872.91,3719.09 3872.00,3720.23 3871.16,3720.57 3870.39,3720.10 3869.68,3718.82"/>
    </edge>
    <edge id=":10026096637_6" function="internal">
        <lane id=":10026096637_6_0" index="0" disallow="tram rail_urban rail rail_electric rail_fast ship" speed="6.58" length="9.16" shape="3864.23,3724.76 3866.75,3724.21 3868.50,3723.04 3869.48,3721.24 3869.68,3718.82"/>
    </edge>
    <edge id=":10026096637_7" function="internal">
        <lane id=":10026096637_7_0" index="0" disallow="tram rail_urban rail rail_electric rail_fast ship" speed="13.89" length="9.16" shape="3864.23,3724.76 3866.94,3724.45 3868.84,3724.24 3870.68,3724.42 3873.20,3725.28"/>
    </edge>
    <edge id=":10026096637_8" function="internal">
        <lane id=":10026096637_8_0" index="0" disallow="tram rail_urban rail rail_electric rail_fast ship" speed="3.67" length="1.29" shape="3864.23,3724.76 3865.24,3725.57"/>
    </edge>
    <edge id=":10026096637_11" function="internal">
        <lane id=":10026096637_11_0" index="0" disallow="tram rail_urban rail rail_electric rail_fast ship" speed="3.67" length="3.45" shape="3865.24,3725.57 3865.38,3725.68 3865.71,3726.52 3865.24,3727.29 3863.96,3728.00"/>
    </edge>
    <edge id=":10026096644_0" function="internal">
        <lane id=":10026096644_0_0" index="0" disallow="tram rail_urban rail rail_electric rail_fast ship" speed="7.61" length="12.47" shape="3878.00,3708.95 3875.52,3709.77 3873.85,3711.70 3872.97,3714.74 3872.89,3718.89"/>
    </edge>
    <edge id=":10026096644_1" function="internal">
        <lane id=":10026096644_1_0" index="0" disallow="tram rail_urban rail rail_electric rail_fast ship" speed="13.89" length="14.50" shape="3878.00,3708.95 3863.66,3711.11"/>
    </edge>
    <edge id=":10026096644_2" function="internal">
        <lane id=":10026096644_2_0" index="0" disallow="tram rail_urban rail rail_electric rail_fast ship" speed="3.72" length="1.75" shape="3878.00,3708.95 3876.49,3708.70 3876.31,3708.55"/>
    </edge>
    <edge id=":10026096644_9" function="internal">
        <lane id=":10026096644_9_0" index="0" disallow="tram rail_urban rail rail_electric rail_fast ship" speed="3.72" length="3.18" shape="3876.31,3708.55 3875.76,3708.10 3875.80,3707.16 3876.61,3705.87"/>
    </edge>
    <edge id=":10026096644_3" function="internal">
        <lane id=":10026096644_3_0" index="0" disallow="tram rail_urban rail rail_electric rail_fast ship" speed="13.89" length="13.39" shape="3863.38,3707.92 3876.61,3705.87"/>
    </edge>
    <edge id=":10026096644_4" function="internal">
        <lane id=":10026096644_4_0" index="0" disallow="tram rail_urban rail rail_electric rail_fast ship" speed="8.53" length="2.87" shape="3863.38,3707.92 3866.24,3708.22"/>
    </edge>
    <edge id=":10026096644_5" function="internal">
        <lane id=":10026096644_5_0" index="0" disallow="tram rail_urban rail rail_electric rail_fast ship" speed="3.65" length="1.44" shape="3863.38,3707.92 3864.65,3708.62"/>
    </edge>
    <edge id=":10026096644_10" function="internal">
        <lane id=":10026096644_10_0" index="0" disallow="tram rail_urban rail rail_electric rail_fast ship" speed="8.53" length="13.64" shape="3866.24,3708.22 3867.25,3708.33 3870.12,3710.29 3872.00,3713.81 3872.89,3718.89"/>
    </edge>
    <edge id=":10026096644_11" function="internal">
        <lane id=":10026096644_11_0" index="0" disallow="tram rail_urban rail rail_electric rail_fast ship" speed="3.65" length="3.23" shape="3864.65,3708.62 3865.11,3709.38 3864.78,3710.21 3863.66,3711.11"/>
    </edge>
    <edge id=":10026096644_6" function="internal">
        <lane id=":10026096644_6_0" index="0" disallow="tram rail_urban rail rail_electric rail_fast ship" speed="6.72" length="9.83" shape="3869.58,3717.36 3869.04,3714.45 3867.87,3712.44 3866.08,3711.33 3863.66,3711.11"/>
    </edge>
    <edge id=":10026096644_7" function="internal">
        <lane id=":10026096644_7_0" index="0" disallow="tram rail_urban rail rail_electric rail_fast ship" speed="8.33" length="15.17" shape="3869.58,3717.36 3869.75,3712.60 3870.97,3709.10 3873.26,3706.86 3876.61,3705.87"/>
    </edge>
    <edge id=":10026096644_8" function="internal">
        <lane id=":10026096644_8_0" index="0" disallow="tram rail_urban rail rail_electric rail_fast ship" speed="3.82" length="5.33" shape="3869.58,3717.36 3870.98,3716.50 3872.00,3716.47 3872.64,3717.27 3872.89,3718.89"/>
    </edge>
    <edge id=":10026096650_0" function="internal">
        <lane id=":10026096650_0_0" index="0" disallow="tram rail_urban rail rail_electric rail_fast ship" speed="3.65" length="4.67" shape="3839.37,3713.46 3838.09,3712.78 3837.62,3712.03 3837.94,3711.19 3839.05,3710.28"/>
    </edge>
    <edge id=":10026096656_0" function="internal">
        <lane id=":10026096656_0_0" index="0" disallow="tram rail_urban rail rail_electric rail_fast ship" speed="3.65" length="4.67" shape="3798.78,3652.19 3799.43,3650.90 3800.18,3650.41 3801.02,3650.71 3801.96,3651.81"/>
    </edge>
    <edge id=":10026096670_0" function="internal">
        <lane id=":10026096670_0_0" index="0" disallow="tram rail_urban rail rail_electric rail_fast ship" speed="13.89" length="14.41" shape="3958.26,3725.19 3943.88,3726.11"/>
    </edge>
    <edge id=":10026096670_1" function="internal">
        <lane id=":10026096670_1_0" index="0" disallow="tram rail_urban rail rail_electric rail_fast ship" speed="8.23" length="3.96" shape="3958.26,3725.19 3954.49,3724.88 3954.34,3724.80"/>
    </edge>
    <edge id=":10026096670_2" function="internal">
        <lane id=":10026096670_2_0" index="0" disallow="tram rail_urban rail rail_electric rail_fast ship" speed="3.65" length="1.44" shape="3958.26,3725.19 3957.02,3724.47"/>
    </edge>
    <edge id=":10026096670_9" function="internal">
        <lane id=":10026096670_9_0" index="0" disallow="tram rail_urban rail rail_electric rail_fast ship" speed="8.23" length="10.34" shape="3954.34,3724.80 3951.62,3723.39 3949.67,3720.72 3948.62,3716.89"/>
    </edge>
    <edge id=":10026096670_10" function="internal">
        <lane id=":10026096670_10_0" index="0" disallow="tram rail_urban rail rail_electric rail_fast ship" speed="3.65" length="3.23" shape="3957.02,3724.47 3956.57,3723.70 3956.91,3722.87 3958.06,3722.00"/>
    </edge>
    <edge id=":10026096670_3" function="internal">
        <lane id=":10026096670_3_0" index="0" disallow="tram rail_urban rail rail_electric rail_fast ship" speed="6.79" length="9.39" shape="3951.79,3716.47 3952.48,3719.02 3953.75,3720.79 3955.61,3721.78 3958.06,3722.00"/>
    </edge>
    <edge id=":10026096670_4" function="internal">
        <lane id=":10026096670_4_0" index="0" disallow="tram rail_urban rail rail_electric rail_fast ship" speed="7.88" length="14.46" shape="3951.79,3716.47 3951.75,3720.47 3950.42,3723.41 3947.80,3725.29 3943.88,3726.11"/>
    </edge>
    <edge id=":10026096670_5" function="internal">
        <lane id=":10026096670_5_0" index="0" disallow="tram rail_urban rail rail_electric rail_fast ship" speed="3.65" length="4.67" shape="3951.79,3716.47 3951.16,3717.76 3950.42,3718.26 3949.57,3717.97 3948.62,3716.89"/>
    </edge>
    <edge id=":10026096670_6" function="internal">
        <lane id=":10026096670_6_0" index="0" disallow="tram rail_urban rail rail_electric rail_fast ship" speed="6.36" length="9.04" shape="3943.68,3722.92 3946.12,3722.40 3947.76,3721.23 3948.60,3719.39 3948.62,3716.89"/>
    </edge>
    <edge id=":10026096670_7" function="internal">
        <lane id=":10026096670_7_0" index="0" disallow="tram rail_urban rail rail_electric rail_fast ship" speed="13.89" length="14.41" shape="3943.68,3722.92 3958.06,3722.00"/>
    </edge>
    <edge id=":10026096670_8" function="internal">
        <lane id=":10026096670_8_0" index="0" disallow="tram rail_urban rail rail_electric rail_fast ship" speed="3.65" length="1.44" shape="3943.68,3722.92 3944.92,3723.64"/>
    </edge>
    <edge id=":10026096670_11" function="internal">
        <lane id=":10026096670_11_0" index="0" disallow="tram rail_urban rail rail_electric rail_fast ship" speed="3.65" length="3.23" shape="3944.92,3723.64 3945.37,3724.41 3945.03,3725.24 3943.88,3726.11"/>
    </edge>
    <edge id=":10026096679_0" function="internal">
        <lane id=":10026096679_0_0" index="0" disallow="tram rail_urban rail rail_electric rail_fast ship" speed="3.65" length="4.67" shape="3948.42,3648.15 3948.97,3646.81 3949.67,3646.26 3950.53,3646.49 3951.56,3647.51"/>
    </edge>
    <edge id=":10026106959_0" function="internal">
        <lane id=":10026106959_0_0" index="0" disallow="tram rail_urban rail rail_electric rail_fast ship" speed="3.65" length="4.67" shape="4088.30,3627.18 4088.95,3625.89 4089.70,3625.40 4090.54,3625.70 4091.48,3626.80"/>
    </edge>
    <edge id=":10026106983_0" function="internal">
        <lane id=":10026106983_0_0" index="0" disallow="tram rail_urban rail rail_electric rail_fast ship" speed="13.89" length="14.09" shape="4191.99,3810.67 4177.94,3811.86"/>
    </edge>
    <edge id=":10026106983_1" function="internal">
        <lane id=":10026106983_1_0" index="0" disallow="tram rail_urban rail rail_electric rail_fast ship" speed="8.34" length="4.02" shape="4191.99,3810.67 4188.09,3810.42 4187.99,3810.37"/>
    </edge>
    <edge id=":10026106983_2" function="internal">
        <lane id=":10026106983_2_0" index="0" disallow="tram rail_urban rail rail_electric rail_fast ship" speed="3.68" length="1.33" shape="4191.99,3810.67 4190.97,3809.80"/>
    </edge>
    <edge id=":10026106983_9" function="internal">
        <lane id=":10026106983_9_0" index="0" disallow="tram rail_urban rail rail_electric rail_fast ship" speed="8.34" length="11.15" shape="4187.99,3810.37 4185.12,3808.84 4183.10,3805.94 4182.02,3801.71"/>
    </edge>
    <edge id=":10026106983_10" function="internal">
        <lane id=":10026106983_10_0" index="0" disallow="tram rail_urban rail rail_electric rail_fast ship" speed="3.68" length="3.44" shape="4190.97,3809.80 4190.86,3809.71 4190.55,3808.85 4191.05,3808.09 4192.37,3807.42"/>
    </edge>
    <edge id=":10026106983_3" function="internal">
        <lane id=":10026106983_3_0" index="0" disallow="tram rail_urban rail rail_electric rail_fast ship" speed="7.46" length="11.93" shape="4185.01,3799.82 4185.85,3803.37 4187.36,3805.82 4189.53,3807.17 4192.37,3807.42"/>
    </edge>
    <edge id=":10026106983_4" function="internal">
        <lane id=":10026106983_4_0" index="0" disallow="tram rail_urban rail rail_electric rail_fast ship" speed="8.45" length="15.80" shape="4185.01,3799.82 4185.08,3804.64 4183.92,3808.26 4181.54,3810.66 4177.94,3811.86"/>
    </edge>
    <edge id=":10026106983_5" function="internal">
        <lane id=":10026106983_5_0" index="0" disallow="tram rail_urban rail rail_electric rail_fast ship" speed="3.78" length="5.16" shape="4185.01,3799.82 4184.97,3801.41 4184.46,3802.25 4183.48,3802.35 4182.02,3801.71"/>
    </edge>
    <edge id=":10026106983_6" function="internal">
        <lane id=":10026106983_6_0" index="0" disallow="tram rail_urban rail rail_electric rail_fast ship" speed="6.67" length="9.43" shape="4177.50,3808.69 4179.77,3807.97 4181.28,3806.57 4182.03,3804.48 4182.02,3801.71"/>
    </edge>
    <edge id=":10026106983_7" function="internal">
        <lane id=":10026106983_7_0" index="0" disallow="tram rail_urban rail rail_electric rail_fast ship" speed="13.89" length="14.92" shape="4177.50,3808.69 4192.37,3807.42"/>
    </edge>
    <edge id=":10026106983_8" function="internal">
        <lane id=":10026106983_8_0" index="0" disallow="tram rail_urban rail rail_electric rail_fast ship" speed="3.65" length="1.44" shape="4177.50,3808.69 4178.80,3809.31"/>
    </edge>
    <edge id=":10026106983_11" function="internal">
        <lane id=":10026106983_11_0" index="0" disallow="tram rail_urban rail rail_electric rail_fast ship" speed="3.65" length="3.23" shape="4178.80,3809.31 4179.31,3810.05 4179.02,3810.90 4177.94,3811.86"/>
    </edge>
    <edge id=":10026111522_0" function="internal">
        <lane id=":10026111522_0_0" index="0" disallow="tram rail_urban rail rail_electric rail_fast ship" speed="6.15" length="8.61" shape="4125.97,3648.37 4123.14,3648.86 4121.23,3649.81 4120.24,3651.22 4120.17,3653.10"/>
    </edge>
    <edge id=":10026111522_1" function="internal">
        <lane id=":10026111522_1_0" index="0" disallow="tram rail_urban rail rail_electric rail_fast ship" speed="8.04" length="12.47" shape="4125.97,3648.37 4122.35,3648.24 4119.53,3647.21 4117.51,3645.30 4116.28,3642.50"/>
    </edge>
    <edge id=":10026111522_2" function="internal">
        <lane id=":10026111522_2_0" index="0" disallow="tram rail_urban rail rail_electric rail_fast ship" speed="3.77" length="1.41" shape="4125.97,3648.37 4125.07,3647.29"/>
    </edge>
    <edge id=":10026111522_9" function="internal">
        <lane id=":10026111522_9_0" index="0" disallow="tram rail_urban rail rail_electric rail_fast ship" speed="3.77" length="3.62" shape="4125.07,3647.29 4124.98,3647.18 4124.81,3646.23 4125.47,3645.53 4126.96,3645.07"/>
    </edge>
    <edge id=":10026111522_3" function="internal">
        <lane id=":10026111522_3_0" index="0" disallow="tram rail_urban rail rail_electric rail_fast ship" speed="7.18" length="10.33" shape="4119.03,3640.29 4120.06,3642.74 4121.73,3644.35 4124.03,3645.13 4126.96,3645.07"/>
    </edge>
    <edge id=":10026111522_4" function="internal">
        <lane id=":10026111522_4_0" index="0" disallow="tram rail_urban rail rail_electric rail_fast ship" speed="13.89" length="3.66" shape="4119.03,3640.29 4119.59,3643.65 4119.60,3643.91"/>
    </edge>
    <edge id=":10026111522_5" function="internal">
        <lane id=":10026111522_5_0" index="0" disallow="tram rail_urban rail rail_electric rail_fast ship" speed="3.77" length="1.95" shape="4119.03,3640.29 4119.17,3641.87 4119.02,3642.20"/>
    </edge>
    <edge id=":10026111522_10" function="internal">
        <lane id=":10026111522_10_0" index="0" disallow="tram rail_urban rail rail_electric rail_fast ship" speed="13.89" length="9.21" shape="4119.60,3643.91 4119.71,3646.67 4119.78,3649.70 4120.17,3653.10"/>
    </edge>
    <edge id=":10026111522_11" function="internal">
        <lane id=":10026111522_11_0" index="0" disallow="tram rail_urban rail rail_electric rail_fast ship" speed="3.77" length="3.19" shape="4119.02,3642.20 4118.76,3642.77 4117.80,3642.97 4116.28,3642.50"/>
    </edge>
    <edge id=":10026111522_6" function="internal">
        <lane id=":10026111522_6_0" index="0" disallow="tram rail_urban rail rail_electric rail_fast ship" speed="13.89" length="9.37" shape="4116.76,3651.80 4116.89,3649.02 4116.99,3647.10 4116.85,3645.20 4116.28,3642.50"/>
    </edge>
    <edge id=":10026111522_7" function="internal">
        <lane id=":10026111522_7_0" index="0" disallow="tram rail_urban rail rail_electric rail_fast ship" speed="8.25" length="13.22" shape="4116.76,3651.80 4117.44,3649.40 4119.36,3647.49 4122.54,3646.04 4126.96,3645.07"/>
    </edge>
    <edge id=":10026111522_8" function="internal">
        <lane id=":10026111522_8_0" index="0" disallow="tram rail_urban rail rail_electric rail_fast ship" speed="3.92" length="5.34" shape="4116.76,3651.80 4118.10,3650.84 4119.11,3650.74 4119.80,3651.49 4120.17,3653.10"/>
    </edge>
    <edge id=":10026111529_0" function="internal">
        <lane id=":10026111529_0_0" index="0" disallow="tram rail_urban rail rail_electric rail_fast ship" speed="5.66" length="9.24" shape="4093.22,3534.57 4092.48,3531.90 4091.18,3530.58 4089.34,3530.63 4086.95,3532.04"/>
    </edge>
    <edge id=":10026111529_1" function="internal">
        <lane id=":10026111529_1_0" index="0" disallow="tram rail_urban rail rail_electric rail_fast ship" speed="13.89" length="14.22" shape="4093.22,3534.57 4092.72,3530.98 4092.20,3527.53 4091.59,3524.10 4090.84,3520.55"/>
    </edge>
    <edge id=":10026111529_2" function="internal">
        <lane id=":10026111529_2_0" index="0" disallow="tram rail_urban rail rail_electric rail_fast ship" speed="3.65" length="1.44" shape="4093.22,3534.57 4093.84,3533.27"/>
    </edge>
    <edge id=":10026111529_9" function="internal">
        <lane id=":10026111529_9_0" index="0" disallow="tram rail_urban rail rail_electric rail_fast ship" speed="3.65" length="3.23" shape="4093.84,3533.27 4094.58,3532.77 4095.43,3533.06 4096.39,3534.13"/>
    </edge>
    <edge id=":10026111529_3" function="internal">
        <lane id=":10026111529_3_0" index="0" disallow="tram rail_urban rail rail_electric rail_fast ship" speed="13.89" length="14.52" shape="4093.96,3519.83 4094.72,3523.42 4095.34,3526.95 4095.88,3530.49 4096.39,3534.13"/>
    </edge>
    <edge id=":10026111529_4" function="internal">
        <lane id=":10026111529_4_0" index="0" disallow="tram rail_urban rail rail_electric rail_fast ship" speed="9.88" length="3.09" shape="4093.96,3519.83 4094.01,3522.72 4093.94,3522.91"/>
    </edge>
    <edge id=":10026111529_5" function="internal">
        <lane id=":10026111529_5_0" index="0" disallow="tram rail_urban rail rail_electric rail_fast ship" speed="3.65" length="1.44" shape="4093.96,3519.83 4093.45,3521.18"/>
    </edge>
    <edge id=":10026111529_10" function="internal">
        <lane id=":10026111529_10_0" index="0" disallow="tram rail_urban rail rail_electric rail_fast ship" speed="9.88" length="11.71" shape="4093.94,3522.91 4092.87,3525.72 4090.51,3528.83 4086.95,3532.04"/>
    </edge>
    <edge id=":10026111529_11" function="internal">
        <lane id=":10026111529_11_0" index="0" disallow="tram rail_urban rail rail_electric rail_fast ship" speed="3.65" length="3.23" shape="4093.45,3521.18 4092.76,3521.75 4091.89,3521.54 4090.84,3520.55"/>
    </edge>
    <edge id=":10026111529_6" function="internal">
        <lane id=":10026111529_6_0" index="0" disallow="tram rail_urban rail rail_electric rail_fast ship" speed="8.65" length="11.19" shape="4084.97,3529.52 4087.86,3526.98 4089.80,3524.64 4090.80,3522.50 4090.84,3520.55"/>
    </edge>
    <edge id=":10026111529_7" function="internal">
        <lane id=":10026111529_7_0" index="0" disallow="tram rail_urban rail rail_electric rail_fast ship" speed="7.40" length="16.83" shape="4084.97,3529.52 4089.33,3526.95 4092.69,3526.87 4095.04,3529.26 4096.39,3534.13"/>
    </edge>
    <edge id=":10026111529_8" function="internal">